<?xml version="1.0" encoding="UTF-8"?>

<!-- generated on 2025-02-03 14:30:38 by Eclipse SUMO netedit Version 1.15.0
<configuration xmlns:xsi="http://www.w3.org/2001/XMLSchema-instance" xsi:noNamespaceSchemaLocation="http://sumo.dlr.de/xsd/netconvertConfiguration.xsd">

    <input>
        <sumo-net-file value="/home/etudiant/bj220781/TP/s6/s6.01_developpement_avance/SUMO/network.net.xml"/>
    </input>

    <output>
        <output-file value="/home/etudiant/bj220781/TP/s6/s6.01_developpement_avance/SUMO/network.net.xml"/>
    </output>

    <processing>
        <geometry.min-radius.fix.railways value="false"/>
        <geometry.max-grade.fix value="false"/>
        <offset.disable-normalization value="true"/>
        <lefthand value="0"/>
    </processing>

    <junctions>
        <no-turnarounds value="true"/>
        <junctions.corner-detail value="5"/>
        <junctions.limit-turn-speed value="5.50"/>
        <rectangular-lane-cut value="0"/>
    </junctions>

    <pedestrian>
        <walkingareas value="0"/>
    </pedestrian>

    <netedit>
        <route-files value="/home/etudiant/bj220781/TP/s6/s6.01_developpement_avance/SUMO/test.rou.xml"/>
    </netedit>

</configuration>
-->

<net version="1.9" junctionCornerDetail="5" limitTurnSpeed="5.50" xmlns:xsi="http://www.w3.org/2001/XMLSchema-instance" xsi:noNamespaceSchemaLocation="http://sumo.dlr.de/xsd/net_file.xsd">

    <location netOffset="-407223.70,-5481707.07" convBoundary="0.00,0.00,605.87,527.66" origBoundary="1.719117,49.480974,1.727467,49.485704" projParameter="+proj=utm +zone=31 +ellps=WGS84 +datum=WGS84 +units=m +no_defs"/>

    <type id="highway.bridleway" priority="1" numLanes="1" speed="2.78" allow="pedestrian" oneway="1" width="2.00"/>
    <type id="highway.bus_guideway" priority="1" numLanes="1" speed="27.78" allow="bus" oneway="1"/>
    <type id="highway.cycleway" priority="1" numLanes="1" speed="5.56" allow="bicycle" oneway="0" width="1.00"/>
    <type id="highway.footway" priority="1" numLanes="1" speed="2.78" allow="pedestrian" oneway="1" width="2.00"/>
    <type id="highway.ford" priority="1" numLanes="1" speed="2.78" allow="army" oneway="0"/>
    <type id="highway.living_street" priority="2" numLanes="1" speed="2.78" disallow="tram rail_urban rail rail_electric rail_fast ship" oneway="0"/>
    <type id="highway.motorway" priority="14" numLanes="2" speed="39.44" allow="private emergency authority army vip passenger hov taxi bus coach delivery truck trailer motorcycle evehicle custom1 custom2" oneway="1"/>
    <type id="highway.motorway_link" priority="9" numLanes="1" speed="22.22" allow="private emergency authority army vip passenger hov taxi bus coach delivery truck trailer motorcycle evehicle custom1 custom2" oneway="1"/>
    <type id="highway.path" priority="1" numLanes="1" speed="5.56" allow="pedestrian bicycle" oneway="0" width="2.00"/>
    <type id="highway.pedestrian" priority="1" numLanes="1" speed="2.78" allow="pedestrian" oneway="1" width="2.00"/>
    <type id="highway.primary" priority="12" numLanes="2" speed="27.78" disallow="tram rail_urban rail rail_electric rail_fast ship" oneway="0"/>
    <type id="highway.primary_link" priority="7" numLanes="1" speed="22.22" disallow="tram rail_urban rail rail_electric rail_fast ship" oneway="0"/>
    <type id="highway.raceway" priority="15" numLanes="2" speed="83.33" allow="vip" oneway="0"/>
    <type id="highway.residential" priority="3" numLanes="1" speed="13.89" disallow="tram rail_urban rail rail_electric rail_fast ship" oneway="0"/>
    <type id="highway.secondary" priority="11" numLanes="1" speed="27.78" disallow="tram rail_urban rail rail_electric rail_fast ship" oneway="0"/>
    <type id="highway.secondary_link" priority="6" numLanes="1" speed="22.22" disallow="tram rail_urban rail rail_electric rail_fast ship" oneway="0"/>
    <type id="highway.service" priority="1" numLanes="1" speed="5.56" allow="pedestrian delivery bicycle" oneway="0"/>
    <type id="highway.stairs" priority="1" numLanes="1" speed="1.39" allow="pedestrian" oneway="1" width="2.00"/>
    <type id="highway.step" priority="1" numLanes="1" speed="1.39" allow="pedestrian" oneway="1" width="2.00"/>
    <type id="highway.steps" priority="1" numLanes="1" speed="1.39" allow="pedestrian" oneway="1" width="2.00"/>
    <type id="highway.tertiary" priority="10" numLanes="1" speed="22.22" disallow="tram rail_urban rail rail_electric rail_fast ship" oneway="0"/>
    <type id="highway.tertiary_link" priority="5" numLanes="1" speed="22.22" disallow="tram rail_urban rail rail_electric rail_fast ship" oneway="0"/>
    <type id="highway.track" priority="1" numLanes="1" speed="5.56" allow="pedestrian motorcycle moped bicycle" oneway="0"/>
    <type id="highway.trunk" priority="13" numLanes="2" speed="27.78" disallow="pedestrian bicycle tram rail_urban rail rail_electric rail_fast ship" oneway="0"/>
    <type id="highway.trunk_link" priority="8" numLanes="1" speed="22.22" disallow="pedestrian bicycle tram rail_urban rail rail_electric rail_fast ship" oneway="0"/>
    <type id="highway.unclassified" priority="4" numLanes="1" speed="13.89" disallow="tram rail_urban rail rail_electric rail_fast ship" oneway="0"/>
    <type id="highway.unsurfaced" priority="1" numLanes="1" speed="8.33" disallow="tram rail_urban rail rail_electric rail_fast ship" oneway="0"/>
    <type id="railway.highspeed" priority="21" numLanes="1" speed="69.44" allow="rail_fast" oneway="1"/>
    <type id="railway.light_rail" priority="19" numLanes="1" speed="27.78" allow="rail_urban" oneway="1"/>
    <type id="railway.preserved" priority="16" numLanes="1" speed="27.78" allow="rail" oneway="1"/>
    <type id="railway.rail" priority="20" numLanes="1" speed="44.44" allow="rail" oneway="1"/>
    <type id="railway.subway" priority="18" numLanes="1" speed="27.78" allow="rail_urban" oneway="1"/>
    <type id="railway.tram" priority="17" numLanes="1" speed="13.89" allow="tram" oneway="1"/>

    <edge id=":11534732012_0" function="internal">
        <lane id=":11534732012_0_0" index="0" allow="pedestrian delivery bicycle" speed="3.65" length="4.67" shape="555.59,320.23 557.02,320.01 557.85,320.33 558.10,321.19 557.75,322.59"/>
    </edge>
    <edge id=":11534732016_0" function="internal">
        <lane id=":11534732016_0_0" index="0" allow="pedestrian delivery bicycle" speed="3.65" length="4.67" shape="493.66,399.72 495.05,400.08 495.70,400.70 495.59,401.58 494.72,402.74"/>
    </edge>
    <edge id=":11534732024_0" function="internal">
        <lane id=":11534732024_0_0" index="0" allow="pedestrian delivery bicycle" speed="3.65" length="4.67" shape="197.49,402.47 196.12,402.02 195.53,401.35 195.70,400.47 196.65,399.39"/>
    </edge>
    <edge id=":11534732025_0" function="internal">
        <lane id=":11534732025_0_0" index="0" allow="pedestrian delivery bicycle" speed="3.65" length="4.67" shape="215.20,329.92 215.64,328.55 216.30,327.94 217.18,328.11 218.28,329.04"/>
    </edge>
    <edge id=":11534732027_0" function="internal">
        <lane id=":11534732027_0_0" index="0" allow="pedestrian delivery bicycle" speed="5.56" length="8.74" shape="218.53,398.11 215.94,398.17 214.16,398.25 212.40,398.51 209.89,399.12"/>
    </edge>
    <edge id=":11534732027_1" function="internal">
        <lane id=":11534732027_1_0" index="0" allow="pedestrian delivery bicycle" speed="5.56" length="11.68" shape="218.53,398.11 215.21,397.75 213.11,396.39 212.24,394.06 212.59,390.73"/>
    </edge>
    <edge id=":11534732027_2" function="internal">
        <lane id=":11534732027_2_0" index="0" allow="pedestrian delivery bicycle" speed="3.65" length="4.67" shape="218.53,398.11 217.31,397.35 216.88,396.56 217.26,395.75 218.43,394.91"/>
    </edge>
    <edge id=":11534732027_3" function="internal">
        <lane id=":11534732027_3_0" index="0" allow="pedestrian delivery bicycle" speed="4.80" length="5.38" shape="215.70,391.52 215.53,393.05 215.93,394.12 216.90,394.74 218.43,394.91"/>
    </edge>
    <edge id=":11534732027_4" function="internal">
        <lane id=":11534732027_4_0" index="0" allow="pedestrian delivery bicycle" speed="5.56" length="10.02" shape="215.70,391.52 214.72,394.42 213.42,396.66 211.81,398.23 209.89,399.12"/>
    </edge>
    <edge id=":11534732027_5" function="internal">
        <lane id=":11534732027_5_0" index="0" allow="pedestrian delivery bicycle" speed="3.65" length="4.67" shape="215.70,391.52 214.62,392.48 213.75,392.67 213.07,392.09 212.59,390.73"/>
    </edge>
    <edge id=":11534732027_6" function="internal">
        <lane id=":11534732027_6_0" index="0" allow="pedestrian delivery bicycle" speed="5.56" length="6.64" shape="209.06,396.03 210.16,395.46 211.12,394.39 211.93,392.81 212.59,390.73"/>
    </edge>
    <edge id=":11534732027_7" function="internal">
        <lane id=":11534732027_7_0" index="0" allow="pedestrian delivery bicycle" speed="5.56" length="9.48" shape="209.06,396.03 211.78,395.36 213.68,395.07 215.62,394.98 218.43,394.91"/>
    </edge>
    <edge id=":11534732027_8" function="internal">
        <lane id=":11534732027_8_0" index="0" allow="pedestrian delivery bicycle" speed="3.65" length="4.67" shape="209.06,396.03 210.42,396.49 211.02,397.16 210.84,398.04 209.89,399.12"/>
    </edge>
    <edge id=":11738002545_0" function="internal">
        <lane id=":11738002545_0_0" index="0" disallow="tram rail_urban rail rail_electric rail_fast ship" speed="13.89" length="0.31" shape="515.72,342.03 515.49,341.81"/>
    </edge>
    <edge id=":11738002545_1" function="internal">
        <lane id=":11738002545_1_0" index="0" disallow="tram rail_urban rail rail_electric rail_fast ship" speed="13.89" length="0.24" shape="517.77,339.56 517.94,339.73"/>
    </edge>
    <edge id=":136736607_0" function="internal">
        <lane id=":136736607_0_0" index="0" disallow="tram rail_urban rail rail_electric rail_fast ship" speed="3.65" length="4.67" shape="585.17,518.22 584.82,519.62 584.20,520.27 583.31,520.16 582.15,519.30"/>
    </edge>
    <edge id=":137979579_0" function="internal">
        <lane id=":137979579_0_0" index="0" disallow="tram rail_urban rail rail_electric rail_fast ship" speed="8.33" length="22.39" shape="239.15,275.67 235.18,277.05 230.46,279.12 224.80,281.28 218.01,282.89"/>
    </edge>
    <edge id=":137979579_1" function="internal">
        <lane id=":137979579_1_0" index="0" disallow="tram rail_urban rail rail_electric rail_fast ship" speed="8.33" length="20.57" shape="239.15,275.67 234.13,275.97 229.82,274.42 226.20,271.03 223.29,265.79"/>
    </edge>
    <edge id=":137979579_2" function="internal">
        <lane id=":137979579_2_0" index="0" disallow="tram rail_urban rail rail_electric rail_fast ship" speed="3.65" length="4.67" shape="239.15,275.67 237.80,275.16 237.24,274.47 237.45,273.60 238.44,272.55"/>
    </edge>
    <edge id=":137979579_3" function="internal">
        <lane id=":137979579_3_0" index="0" disallow="tram rail_urban rail rail_electric rail_fast ship" speed="8.33" length="13.83" shape="229.27,263.52 231.43,267.89 233.68,270.86 236.02,272.41 238.44,272.55"/>
    </edge>
    <edge id=":137979579_4" function="internal">
        <lane id=":137979579_4_0" index="0" disallow="tram rail_urban rail rail_electric rail_fast ship" speed="8.33" length="21.21" shape="226.28,264.65 227.74,270.43 226.77,274.87 223.36,277.97 217.52,279.73"/>
    </edge>
    <edge id=":137979579_5" function="internal">
        <lane id=":137979579_5_0" index="0" disallow="tram rail_urban rail rail_electric rail_fast ship" speed="3.65" length="4.68" shape="226.28,264.65 225.96,266.06 225.35,266.72 224.46,266.63 223.29,265.79"/>
    </edge>
    <edge id=":137979579_6" function="internal">
        <lane id=":137979579_6_0" index="0" disallow="tram rail_urban rail rail_electric rail_fast ship" speed="6.06" length="9.11" shape="216.54,273.41 219.05,272.65 220.51,271.32 220.92,269.41 220.29,266.92"/>
    </edge>
    <edge id=":137979579_7" function="internal">
        <lane id=":137979579_7_0" index="0" disallow="tram rail_urban rail rail_electric rail_fast ship" speed="8.33" length="21.95" shape="216.54,273.41 223.45,272.78 229.37,272.82 234.35,272.94 238.44,272.55"/>
    </edge>
    <edge id=":137979579_8" function="internal">
        <lane id=":137979579_8_0" index="0" disallow="tram rail_urban rail rail_electric rail_fast ship" speed="3.65" length="4.67" shape="217.03,276.57 218.34,277.18 218.86,277.91 218.58,278.76 217.52,279.73"/>
    </edge>
    <edge id=":137979590_0" function="internal">
        <lane id=":137979590_0_0" index="0" disallow="tram rail_urban rail rail_electric rail_fast ship" speed="6.44" length="9.35" shape="400.25,196.68 398.64,194.54 396.81,193.47 394.76,193.46 392.49,194.51"/>
    </edge>
    <edge id=":137979590_1" function="internal">
        <lane id=":137979590_1_0" index="0" disallow="tram rail_urban rail rail_electric rail_fast ship" speed="13.89" length="14.92" shape="400.25,196.68 392.46,183.95"/>
    </edge>
    <edge id=":137979590_2" function="internal">
        <lane id=":137979590_2_0" index="0" disallow="tram rail_urban rail rail_electric rail_fast ship" speed="7.71" length="3.93" shape="400.25,196.68 398.84,193.02"/>
    </edge>
    <edge id=":137979590_3" function="internal">
        <lane id=":137979590_3_0" index="0" disallow="tram rail_urban rail rail_electric rail_fast ship" speed="3.65" length="1.44" shape="400.25,196.68 400.36,195.25"/>
    </edge>
    <edge id=":137979590_16" function="internal">
        <lane id=":137979590_16_0" index="0" disallow="tram rail_urban rail rail_electric rail_fast ship" speed="7.71" length="11.01" shape="398.84,193.02 398.74,192.75 398.98,189.50 400.98,186.92 404.74,185.02"/>
    </edge>
    <edge id=":137979590_17" function="internal">
        <lane id=":137979590_17_0" index="0" disallow="tram rail_urban rail rail_electric rail_fast ship" speed="3.65" length="3.23" shape="400.36,195.25 400.86,194.51 401.75,194.46 403.04,195.12"/>
    </edge>
    <edge id=":137979590_4" function="internal">
        <lane id=":137979590_4_0" index="0" disallow="tram rail_urban rail rail_electric rail_fast ship" speed="6.14" length="9.06" shape="405.76,188.05 403.49,189.21 402.27,190.77 402.12,192.74 403.04,195.12"/>
    </edge>
    <edge id=":137979590_5" function="internal">
        <lane id=":137979590_5_0" index="0" disallow="tram rail_urban rail rail_electric rail_fast ship" speed="8.33" length="14.80" shape="405.76,188.05 402.27,189.35 398.91,190.84 395.65,192.56 392.49,194.51"/>
    </edge>
    <edge id=":137979590_6" function="internal">
        <lane id=":137979590_6_0" index="0" disallow="tram rail_urban rail rail_electric rail_fast ship" speed="9.17" length="15.10" shape="405.76,188.05 401.71,188.89 398.14,188.48 395.05,186.84 392.46,183.95"/>
    </edge>
    <edge id=":137979590_7" function="internal">
        <lane id=":137979590_7_0" index="0" disallow="tram rail_urban rail rail_electric rail_fast ship" speed="3.65" length="4.67" shape="405.76,188.05 404.37,187.68 403.73,187.05 403.86,186.16 404.74,185.02"/>
    </edge>
    <edge id=":137979590_8" function="internal">
        <lane id=":137979590_8_0" index="0" disallow="tram rail_urban rail rail_electric rail_fast ship" speed="7.86" length="10.89" shape="395.11,182.17 396.97,184.21 399.19,185.37 401.78,185.64 404.74,185.02"/>
    </edge>
    <edge id=":137979590_9" function="internal">
        <lane id=":137979590_9_0" index="0" disallow="tram rail_urban rail rail_electric rail_fast ship" speed="13.89" length="15.18" shape="395.11,182.17 403.04,195.12"/>
    </edge>
    <edge id=":137979590_10" function="internal">
        <lane id=":137979590_10_0" index="0" disallow="tram rail_urban rail rail_electric rail_fast ship" speed="8.04" length="4.37" shape="395.11,182.17 396.80,185.69 396.81,186.15"/>
    </edge>
    <edge id=":137979590_11" function="internal">
        <lane id=":137979590_11_0" index="0" disallow="tram rail_urban rail rail_electric rail_fast ship" speed="3.65" length="1.44" shape="395.11,182.17 395.12,183.61"/>
    </edge>
    <edge id=":137979590_18" function="internal">
        <lane id=":137979590_18_0" index="0" disallow="tram rail_urban rail rail_electric rail_fast ship" speed="8.04" length="10.04" shape="396.81,186.15 396.92,188.92 395.48,191.86 392.49,194.51"/>
    </edge>
    <edge id=":137979590_19" function="internal">
        <lane id=":137979590_19_0" index="0" disallow="tram rail_urban rail rail_electric rail_fast ship" speed="3.65" length="3.23" shape="395.12,183.61 394.68,184.39 393.79,184.50 392.46,183.95"/>
    </edge>
    <edge id=":137979590_12" function="internal">
        <lane id=":137979590_12_0" index="0" disallow="tram rail_urban rail rail_electric rail_fast ship" speed="6.56" length="9.23" shape="390.72,191.85 392.65,190.14 393.59,188.25 393.52,186.19 392.46,183.95"/>
    </edge>
    <edge id=":137979590_13" function="internal">
        <lane id=":137979590_13_0" index="0" disallow="tram rail_urban rail rail_electric rail_fast ship" speed="8.33" length="15.63" shape="390.72,191.85 394.00,189.84 397.51,188.00 401.13,186.37 404.74,185.02"/>
    </edge>
    <edge id=":137979590_14" function="internal">
        <lane id=":137979590_14_0" index="0" disallow="tram rail_urban rail rail_electric rail_fast ship" speed="7.95" length="14.81" shape="390.72,191.85 394.35,190.14 397.62,190.12 400.51,191.78 403.04,195.12"/>
    </edge>
    <edge id=":137979590_15" function="internal">
        <lane id=":137979590_15_0" index="0" disallow="tram rail_urban rail rail_electric rail_fast ship" speed="3.65" length="4.67" shape="390.72,191.85 392.16,191.85 392.93,192.29 393.04,193.18 392.49,194.51"/>
    </edge>
    <edge id=":137979596_0" function="internal">
        <lane id=":137979596_0_0" index="0" disallow="tram rail_urban rail rail_electric rail_fast ship" speed="11.11" length="5.65" shape="497.38,181.98 495.88,181.22 494.83,180.71 493.72,180.40 492.07,180.25"/>
    </edge>
    <edge id=":137979596_1" function="internal">
        <lane id=":137979596_1_0" index="0" disallow="tram rail_urban rail rail_electric rail_fast ship" speed="5.90" length="11.78" shape="497.38,181.98 493.87,179.88 492.59,178.00 493.53,176.32 496.69,174.86"/>
    </edge>
    <edge id=":137979596_2" function="internal">
        <lane id=":137979596_2_0" index="0" disallow="tram rail_urban rail rail_electric rail_fast ship" speed="8.33" length="6.17" shape="497.66,177.91 495.99,178.68 494.92,179.47 493.82,180.06 492.07,180.25"/>
    </edge>
    <edge id=":137979596_3" function="internal">
        <lane id=":137979596_3_0" index="0" disallow="tram rail_urban rail rail_electric rail_fast ship" speed="8.33" length="5.12" shape="492.20,177.05 493.62,176.86 494.49,176.28 495.34,175.54 496.69,174.86"/>
    </edge>
    <edge id=":137979664_0" function="internal">
        <lane id=":137979664_0_0" index="0" disallow="tram rail_urban rail rail_electric rail_fast ship" speed="13.89" length="11.19" shape="382.60,78.22 377.90,88.38"/>
    </edge>
    <edge id=":137979664_1" function="internal">
        <lane id=":137979664_1_0" index="0" disallow="tram rail_urban rail rail_electric rail_fast ship" speed="7.39" length="2.48" shape="382.60,78.22 381.08,80.18"/>
    </edge>
    <edge id=":137979664_2" function="internal">
        <lane id=":137979664_2_0" index="0" disallow="tram rail_urban rail rail_electric rail_fast ship" speed="3.65" length="1.44" shape="382.60,78.22 381.37,78.97"/>
    </edge>
    <edge id=":137979664_6" function="internal">
        <lane id=":137979664_6_0" index="0" disallow="tram rail_urban rail rail_electric rail_fast ship" speed="7.39" length="9.27" shape="381.08,80.18 378.84,81.07 375.88,80.90 372.19,79.67"/>
    </edge>
    <edge id=":137979664_7" function="internal">
        <lane id=":137979664_7_0" index="0" disallow="tram rail_urban rail rail_electric rail_fast ship" speed="3.65" length="3.23" shape="381.37,78.97 380.47,79.00 379.91,78.30 379.69,76.87"/>
    </edge>
    <edge id=":137979664_3" function="internal">
        <lane id=":137979664_3_0" index="0" disallow="tram rail_urban rail rail_electric rail_fast ship" speed="6.48" length="9.01" shape="374.99,87.04 375.68,84.65 375.44,82.62 374.28,80.96 372.19,79.67"/>
    </edge>
    <edge id=":137979664_4" function="internal">
        <lane id=":137979664_4_0" index="0" disallow="tram rail_urban rail rail_electric rail_fast ship" speed="13.89" length="11.20" shape="374.99,87.04 379.69,76.87"/>
    </edge>
    <edge id=":137979664_5" function="internal">
        <lane id=":137979664_5_0" index="0" disallow="tram rail_urban rail rail_electric rail_fast ship" speed="3.65" length="1.44" shape="374.99,87.04 376.22,86.28"/>
    </edge>
    <edge id=":137979664_8" function="internal">
        <lane id=":137979664_8_0" index="0" disallow="tram rail_urban rail rail_electric rail_fast ship" speed="3.65" length="3.23" shape="376.22,86.28 377.12,86.25 377.67,86.95 377.90,88.38"/>
    </edge>
    <edge id=":137979673_0" function="internal">
        <lane id=":137979673_0_0" index="0" disallow="tram rail_urban rail rail_electric rail_fast ship" speed="6.41" length="8.81" shape="413.61,23.46 411.44,22.83 409.54,23.13 407.91,24.38 406.54,26.56"/>
    </edge>
    <edge id=":137979673_1" function="internal">
        <lane id=":137979673_1_0" index="0" disallow="tram rail_urban rail rail_electric rail_fast ship" speed="8.70" length="14.53" shape="413.61,23.46 410.12,21.25 407.91,18.56 407.00,15.41 407.38,11.79"/>
    </edge>
    <edge id=":137979673_2" function="internal">
        <lane id=":137979673_2_0" index="0" disallow="tram rail_urban rail rail_electric rail_fast ship" speed="3.65" length="4.67" shape="413.61,23.46 412.87,22.22 412.86,21.33 413.56,20.78 414.99,20.58"/>
    </edge>
    <edge id=":137979673_3" function="internal">
        <lane id=":137979673_3_0" index="0" disallow="tram rail_urban rail rail_electric rail_fast ship" speed="7.32" length="10.05" shape="410.47,12.61 410.24,15.04 410.92,17.18 412.50,19.02 414.99,20.58"/>
    </edge>
    <edge id=":137979673_4" function="internal">
        <lane id=":137979673_4_0" index="0" disallow="tram rail_urban rail rail_electric rail_fast ship" speed="13.89" length="14.51" shape="410.47,12.61 409.61,16.19 408.81,19.70 407.86,23.15 406.54,26.56"/>
    </edge>
    <edge id=":137979673_5" function="internal">
        <lane id=":137979673_5_0" index="0" disallow="tram rail_urban rail rail_electric rail_fast ship" speed="3.65" length="1.44" shape="410.47,12.61 409.39,13.57"/>
    </edge>
    <edge id=":137979673_9" function="internal">
        <lane id=":137979673_9_0" index="0" disallow="tram rail_urban rail rail_electric rail_fast ship" speed="3.65" length="3.23" shape="409.39,13.57 408.51,13.75 407.84,13.16 407.38,11.79"/>
    </edge>
    <edge id=":137979673_6" function="internal">
        <lane id=":137979673_6_0" index="0" disallow="tram rail_urban rail rail_electric rail_fast ship" speed="13.89" length="14.50" shape="403.41,25.71 404.73,22.30 405.70,18.86 406.51,15.37 407.38,11.79"/>
    </edge>
    <edge id=":137979673_7" function="internal">
        <lane id=":137979673_7_0" index="0" disallow="tram rail_urban rail rail_electric rail_fast ship" speed="8.04" length="3.98" shape="403.41,25.71 405.51,22.33"/>
    </edge>
    <edge id=":137979673_8" function="internal">
        <lane id=":137979673_8_0" index="0" disallow="tram rail_urban rail rail_electric rail_fast ship" speed="3.67" length="1.46" shape="403.41,25.71 404.51,24.75"/>
    </edge>
    <edge id=":137979673_10" function="internal">
        <lane id=":137979673_10_0" index="0" disallow="tram rail_urban rail rail_electric rail_fast ship" speed="8.04" length="10.49" shape="405.51,22.33 405.65,22.11 408.33,20.06 411.44,19.54 414.99,20.58"/>
    </edge>
    <edge id=":137979673_11" function="internal">
        <lane id=":137979673_11_0" index="0" disallow="tram rail_urban rail rail_electric rail_fast ship" speed="3.67" length="3.28" shape="404.51,24.75 405.40,24.57 406.08,25.17 406.54,26.56"/>
    </edge>
    <edge id=":137979678_0" function="internal">
        <lane id=":137979678_0_0" index="0" disallow="tram rail_urban rail rail_electric rail_fast ship" speed="3.65" length="4.67" shape="408.30,-0.03 409.12,-1.22 409.93,-1.60 410.72,-1.18 411.50,0.03"/>
    </edge>
    <edge id=":1841947665_0" function="internal">
        <lane id=":1841947665_0_0" index="0" disallow="tram rail_urban rail rail_electric rail_fast ship" speed="13.89" length="6.68" shape="374.35,96.31 373.63,98.15 373.31,99.46 373.09,100.81 372.64,102.75"/>
    </edge>
    <edge id=":1841947665_1" function="internal">
        <lane id=":1841947665_1_0" index="0" disallow="tram rail_urban rail rail_electric rail_fast ship" speed="3.65" length="1.44" shape="374.35,96.31 373.13,97.08"/>
    </edge>
    <edge id=":1841947665_6" function="internal">
        <lane id=":1841947665_6_0" index="0" disallow="tram rail_urban rail rail_electric rail_fast ship" speed="3.65" length="3.23" shape="373.13,97.08 372.23,97.12 371.67,96.42 371.43,95.00"/>
    </edge>
    <edge id=":1841947665_2" function="internal">
        <lane id=":1841947665_2_0" index="0" disallow="tram rail_urban rail rail_electric rail_fast ship" speed="10.75" length="6.98" shape="366.30,99.43 368.13,98.43 369.43,97.72 370.45,96.75 371.43,95.00"/>
    </edge>
    <edge id=":1841947665_3" function="internal">
        <lane id=":1841947665_3_0" index="0" disallow="tram rail_urban rail rail_electric rail_fast ship" speed="5.90" length="11.71" shape="366.30,99.43 369.96,97.67 372.23,97.63 373.13,99.33 372.64,102.75"/>
    </edge>
    <edge id=":1841947665_4" function="internal">
        <lane id=":1841947665_4_0" index="0" disallow="tram rail_urban rail rail_electric rail_fast ship" speed="13.89" length="7.16" shape="369.55,101.89 370.04,99.82 370.30,98.38 370.65,96.97 371.43,95.00"/>
    </edge>
    <edge id=":1841947665_5" function="internal">
        <lane id=":1841947665_5_0" index="0" disallow="tram rail_urban rail rail_electric rail_fast ship" speed="3.65" length="1.44" shape="369.55,101.89 370.64,100.95"/>
    </edge>
    <edge id=":1841947665_7" function="internal">
        <lane id=":1841947665_7_0" index="0" disallow="tram rail_urban rail rail_electric rail_fast ship" speed="3.65" length="3.23" shape="370.64,100.95 371.52,100.78 372.19,101.38 372.64,102.75"/>
    </edge>
    <edge id=":1841947666_0" function="internal">
        <lane id=":1841947666_0_0" index="0" disallow="tram rail_urban rail rail_electric rail_fast ship" speed="8.33" length="11.22" shape="374.13,206.73 364.77,212.91"/>
    </edge>
    <edge id=":1841947666_1" function="internal">
        <lane id=":1841947666_1_0" index="0" disallow="tram rail_urban rail rail_electric rail_fast ship" speed="6.63" length="11.01" shape="374.13,206.73 371.78,207.67 369.66,207.21 367.78,205.35 366.14,202.08"/>
    </edge>
    <edge id=":1841947666_2" function="internal">
        <lane id=":1841947666_2_0" index="0" disallow="tram rail_urban rail rail_electric rail_fast ship" speed="3.65" length="4.67" shape="374.13,206.73 372.69,206.73 371.92,206.28 371.81,205.39 372.36,204.06"/>
    </edge>
    <edge id=":1841947666_3" function="internal">
        <lane id=":1841947666_3_0" index="0" disallow="tram rail_urban rail rail_electric rail_fast ship" speed="7.24" length="9.55" shape="363.02,210.24 365.09,208.50 366.30,206.56 366.65,204.42 366.14,202.08"/>
    </edge>
    <edge id=":1841947666_4" function="internal">
        <lane id=":1841947666_4_0" index="0" disallow="tram rail_urban rail rail_electric rail_fast ship" speed="8.33" length="11.20" shape="363.02,210.24 372.36,204.06"/>
    </edge>
    <edge id=":1841947666_5" function="internal">
        <lane id=":1841947666_5_0" index="0" disallow="tram rail_urban rail rail_electric rail_fast ship" speed="3.65" length="4.67" shape="363.02,210.24 364.46,210.25 365.23,210.70 365.34,211.59 364.77,212.91"/>
    </edge>
    <edge id=":1841947667_0" function="internal">
        <lane id=":1841947667_0_0" index="0" disallow="tram rail_urban rail rail_electric rail_fast ship" speed="3.65" length="4.67" shape="599.59,130.25 601.02,130.43 601.74,130.96 601.74,131.85 601.03,133.11"/>
    </edge>
    <edge id=":1841947668_0" function="internal">
        <lane id=":1841947668_0_0" index="0" disallow="tram rail_urban rail rail_electric rail_fast ship" speed="13.89" length="6.04" shape="310.61,140.34 309.08,139.40 308.02,138.79 306.92,138.24 305.30,137.48"/>
    </edge>
    <edge id=":1841947668_1" function="internal">
        <lane id=":1841947668_1_0" index="0" disallow="tram rail_urban rail rail_electric rail_fast ship" speed="4.94" length="5.13" shape="310.61,140.34 309.52,139.43 309.02,138.41 309.12,137.27 309.81,136.03"/>
    </edge>
    <edge id=":1842033811_0" function="internal">
        <lane id=":1842033811_0_0" index="0" disallow="tram rail_urban rail rail_electric rail_fast ship" speed="3.65" length="4.67" shape="287.22,49.46 287.25,48.02 287.71,47.25 288.60,47.16 289.92,47.74"/>
    </edge>
    <edge id=":1842033815_0" function="internal">
        <lane id=":1842033815_0_0" index="0" allow="pedestrian delivery bicycle" speed="9.72" length="8.74" shape="333.73,122.73 329.10,115.31"/>
    </edge>
    <edge id=":1842033815_1" function="internal">
        <lane id=":1842033815_1_0" index="0" allow="pedestrian delivery bicycle" speed="6.83" length="10.03" shape="333.73,122.73 333.49,121.27 334.40,119.59 336.44,117.67 339.62,115.52"/>
    </edge>
    <edge id=":1842033815_2" function="internal">
        <lane id=":1842033815_2_0" index="0" allow="pedestrian delivery bicycle" speed="3.65" length="4.67" shape="333.73,122.73 333.80,121.29 334.28,120.53 335.17,120.46 336.47,121.08"/>
    </edge>
    <edge id=":1842033815_3" function="internal">
        <lane id=":1842033815_3_0" index="0" disallow="tram rail_urban rail rail_electric rail_fast ship" speed="6.60" length="9.14" shape="331.80,113.59 333.44,115.51 335.29,116.47 337.35,116.48 339.62,115.52"/>
    </edge>