<?xml version="1.0" encoding="UTF-8"?>

<!-- generated on 2025-02-03 15:11:50 by Eclipse SUMO netconvert Version 1.15.0
<configuration xmlns:xsi="http://www.w3.org/2001/XMLSchema-instance" xsi:noNamespaceSchemaLocation="http://sumo.dlr.de/xsd/netconvertConfiguration.xsd">

    <input>
        <osm-files value="map.osm"/>
    </input>

    <output>
        <output-file value="network.net.xml"/>
    </output>

    <projection>
        <proj.utm value="true"/>
    </projection>

</configuration>
-->

<net version="1.9" junctionCornerDetail="5" limitTurnSpeed="5.50" xmlns:xsi="http://www.w3.org/2001/XMLSchema-instance" xsi:noNamespaceSchemaLocation="http://sumo.dlr.de/xsd/net_file.xsd">

    <location netOffset="-407471.44,-5481802.45" convBoundary="0.00,0.00,268.99,425.91" origBoundary="1.722561,49.481826,1.726228,49.485669" projParameter="+proj=utm +zone=31 +ellps=WGS84 +datum=WGS84 +units=m +no_defs"/>

    <type id="highway.bridleway" priority="1" numLanes="1" speed="2.78" allow="pedestrian" oneway="1" width="2.00"/>
    <type id="highway.bus_guideway" priority="1" numLanes="1" speed="27.78" allow="bus" oneway="1"/>
    <type id="highway.cycleway" priority="1" numLanes="1" speed="5.56" allow="bicycle" oneway="0" width="1.00"/>
    <type id="highway.footway" priority="1" numLanes="1" speed="2.78" allow="pedestrian" oneway="1" width="2.00"/>
    <type id="highway.ford" priority="1" numLanes="1" speed="2.78" allow="army" oneway="0"/>
    <type id="highway.living_street" priority="2" numLanes="1" speed="2.78" disallow="tram rail_urban rail rail_electric rail_fast ship" oneway="0"/>
    <type id="highway.motorway" priority="14" numLanes="2" speed="39.44" allow="private emergency authority army vip passenger hov taxi bus coach delivery truck trailer motorcycle evehicle custom1 custom2" oneway="1"/>
    <type id="highway.motorway_link" priority="9" numLanes="1" speed="22.22" allow="private emergency authority army vip passenger hov taxi bus coach delivery truck trailer motorcycle evehicle custom1 custom2" oneway="1"/>
    <type id="highway.path" priority="1" numLanes="1" speed="5.56" allow="pedestrian bicycle" oneway="0" width="2.00"/>
    <type id="highway.pedestrian" priority="1" numLanes="1" speed="2.78" allow="pedestrian" oneway="1" width="2.00"/>
    <type id="highway.primary" priority="12" numLanes="2" speed="27.78" disallow="tram rail_urban rail rail_electric rail_fast ship" oneway="0"/>
    <type id="highway.primary_link" priority="7" numLanes="1" speed="22.22" disallow="tram rail_urban rail rail_electric rail_fast ship" oneway="0"/>
    <type id="highway.raceway" priority="15" numLanes="2" speed="83.33" allow="vip" oneway="0"/>
    <type id="highway.residential" priority="3" numLanes="1" speed="13.89" disallow="tram rail_urban rail rail_electric rail_fast ship" oneway="0"/>
    <type id="highway.secondary" priority="11" numLanes="1" speed="27.78" disallow="tram rail_urban rail rail_electric rail_fast ship" oneway="0"/>
    <type id="highway.secondary_link" priority="6" numLanes="1" speed="22.22" disallow="tram rail_urban rail rail_electric rail_fast ship" oneway="0"/>
    <type id="highway.service" priority="1" numLanes="1" speed="5.56" allow="pedestrian delivery bicycle" oneway="0"/>
    <type id="highway.stairs" priority="1" numLanes="1" speed="1.39" allow="pedestrian" oneway="1" width="2.00"/>
    <type id="highway.step" priority="1" numLanes="1" speed="1.39" allow="pedestrian" oneway="1" width="2.00"/>
    <type id="highway.steps" priority="1" numLanes="1" speed="1.39" allow="pedestrian" oneway="1" width="2.00"/>
    <type id="highway.tertiary" priority="10" numLanes="1" speed="22.22" disallow="tram rail_urban rail rail_electric rail_fast ship" oneway="0"/>
    <type id="highway.tertiary_link" priority="5" numLanes="1" speed="22.22" disallow="tram rail_urban rail rail_electric rail_fast ship" oneway="0"/>
    <type id="highway.track" priority="1" numLanes="1" speed="5.56" allow="pedestrian motorcycle moped bicycle" oneway="0"/>
    <type id="highway.trunk" priority="13" numLanes="2" speed="27.78" disallow="pedestrian bicycle tram rail_urban rail rail_electric rail_fast ship" oneway="0"/>
    <type id="highway.trunk_link" priority="8" numLanes="1" speed="22.22" disallow="pedestrian bicycle tram rail_urban rail rail_electric rail_fast ship" oneway="0"/>
    <type id="highway.unclassified" priority="4" numLanes="1" speed="13.89" disallow="tram rail_urban rail rail_electric rail_fast ship" oneway="0"/>
    <type id="highway.unsurfaced" priority="1" numLanes="1" speed="8.33" disallow="tram rail_urban rail rail_electric rail_fast ship" oneway="0"/>
    <type id="railway.highspeed" priority="21" numLanes="1" speed="69.44" allow="rail_fast" oneway="1"/>
    <type id="railway.light_rail" priority="19" numLanes="1" speed="27.78" allow="rail_urban" oneway="1"/>
    <type id="railway.preserved" priority="16" numLanes="1" speed="27.78" allow="rail" oneway="1"/>
    <type id="railway.rail" priority="20" numLanes="1" speed="44.44" allow="rail" oneway="1"/>
    <type id="railway.subway" priority="18" numLanes="1" speed="27.78" allow="rail_urban" oneway="1"/>
    <type id="railway.tram" priority="17" numLanes="1" speed="13.89" allow="tram" oneway="1"/>

    <edge id=":11738002545_0" function="internal">
        <lane id=":11738002545_0_0" index="0" disallow="tram rail_urban rail rail_electric rail_fast ship" speed="3.65" length="4.67" shape="270.13,244.28 270.40,245.70 270.12,246.54 269.26,246.82 267.85,246.53"/>
    </edge>
    <edge id=":137979590_0" function="internal">
        <lane id=":137979590_0_0" index="0" disallow="tram rail_urban rail rail_electric rail_fast ship" speed="6.44" length="9.35" shape="152.51,101.30 150.90,99.16 149.07,98.09 147.02,98.08 144.75,99.13"/>
    </edge>
    <edge id=":137979590_1" function="internal">
        <lane id=":137979590_1_0" index="0" disallow="tram rail_urban rail rail_electric rail_fast ship" speed="13.89" length="14.92" shape="152.51,101.30 144.72,88.57"/>
    </edge>
    <edge id=":137979590_2" function="internal">
        <lane id=":137979590_2_0" index="0" disallow="tram rail_urban rail rail_electric rail_fast ship" speed="7.71" length="3.94" shape="152.51,101.30 151.10,97.63"/>
    </edge>
    <edge id=":137979590_3" function="internal">
        <lane id=":137979590_3_0" index="0" disallow="tram rail_urban rail rail_electric rail_fast ship" speed="3.65" length="1.44" shape="152.51,101.30 152.62,99.87"/>
    </edge>
    <edge id=":137979590_16" function="internal">
        <lane id=":137979590_16_0" index="0" disallow="tram rail_urban rail rail_electric rail_fast ship" speed="7.71" length="11.01" shape="151.10,97.63 151.00,97.37 151.24,94.12 153.24,91.54 157.00,89.64"/>
    </edge>
    <edge id=":137979590_17" function="internal">
        <lane id=":137979590_17_0" index="0" disallow="tram rail_urban rail rail_electric rail_fast ship" speed="3.65" length="3.23" shape="152.62,99.87 153.12,99.13 154.02,99.08 155.30,99.74"/>
    </edge>
    <edge id=":137979590_4" function="internal">
        <lane id=":137979590_4_0" index="0" disallow="tram rail_urban rail rail_electric rail_fast ship" speed="6.14" length="9.06" shape="158.02,92.67 155.75,93.83 154.53,95.39 154.39,97.36 155.30,99.74"/>
    </edge>
    <edge id=":137979590_5" function="internal">
        <lane id=":137979590_5_0" index="0" disallow="tram rail_urban rail rail_electric rail_fast ship" speed="8.33" length="14.80" shape="158.02,92.67 154.54,93.97 151.17,95.46 147.91,97.18 144.75,99.13"/>
    </edge>
    <edge id=":137979590_6" function="internal">
        <lane id=":137979590_6_0" index="0" disallow="tram rail_urban rail rail_electric rail_fast ship" speed="9.17" length="15.10" shape="158.02,92.67 153.97,93.51 150.40,93.10 147.32,91.45 144.72,88.57"/>
    </edge>
    <edge id=":137979590_7" function="internal">
        <lane id=":137979590_7_0" index="0" disallow="tram rail_urban rail rail_electric rail_fast ship" speed="3.65" length="4.67" shape="158.02,92.67 156.63,92.30 155.99,91.67 156.12,90.78 157.00,89.64"/>
    </edge>
    <edge id=":137979590_8" function="internal">
        <lane id=":137979590_8_0" index="0" disallow="tram rail_urban rail rail_electric rail_fast ship" speed="7.86" length="10.89" shape="147.38,86.79 149.23,88.83 151.45,89.99 154.04,90.26 157.00,89.64"/>
    </edge>
    <edge id=":137979590_9" function="internal">
        <lane id=":137979590_9_0" index="0" disallow="tram rail_urban rail rail_electric rail_fast ship" speed="13.89" length="15.18" shape="147.38,86.79 155.30,99.74"/>
    </edge>
    <edge id=":137979590_10" function="internal">
        <lane id=":137979590_10_0" index="0" disallow="tram rail_urban rail rail_electric rail_fast ship" speed="8.05" length="4.36" shape="147.38,86.79 149.06,90.31 149.07,90.77"/>
    </edge>
    <edge id=":137979590_11" function="internal">
        <lane id=":137979590_11_0" index="0" disallow="tram rail_urban rail rail_electric rail_fast ship" speed="3.65" length="1.44" shape="147.38,86.79 147.38,88.23"/>
    </edge>
    <edge id=":137979590_18" function="internal">
        <lane id=":137979590_18_0" index="0" disallow="tram rail_urban rail rail_electric rail_fast ship" speed="8.05" length="10.04" shape="149.07,90.77 149.18,93.54 147.74,96.48 144.75,99.13"/>
    </edge>
    <edge id=":137979590_19" function="internal">
        <lane id=":137979590_19_0" index="0" disallow="tram rail_urban rail rail_electric rail_fast ship" speed="3.65" length="3.23" shape="147.38,88.23 146.94,89.01 146.05,89.12 144.72,88.57"/>
    </edge>
    <edge id=":137979590_12" function="internal">
        <lane id=":137979590_12_0" index="0" disallow="tram rail_urban rail rail_electric rail_fast ship" speed="6.56" length="9.23" shape="142.98,96.47 144.91,94.76 145.85,92.87 145.78,90.81 144.72,88.57"/>
    </edge>
    <edge id=":137979590_13" function="internal">
        <lane id=":137979590_13_0" index="0" disallow="tram rail_urban rail rail_electric rail_fast ship" speed="8.33" length="15.64" shape="142.98,96.47 146.26,94.46 149.77,92.62 153.39,90.99 157.00,89.64"/>
    </edge>
    <edge id=":137979590_14" function="internal">
        <lane id=":137979590_14_0" index="0" disallow="tram rail_urban rail rail_electric rail_fast ship" speed="7.95" length="14.81" shape="142.98,96.47 146.61,94.76 149.88,94.74 152.78,96.40 155.30,99.74"/>
    </edge>
    <edge id=":137979590_15" function="internal">
        <lane id=":137979590_15_0" index="0" disallow="tram rail_urban rail rail_electric rail_fast ship" speed="3.65" length="4.67" shape="142.98,96.47 144.42,96.47 145.19,96.91 145.30,97.80 144.75,99.13"/>
    </edge>
    <edge id=":1841947665_0" function="internal">
        <lane id=":1841947665_0_0" index="0" disallow="tram rail_urban rail rail_electric rail_fast ship" speed="3.65" length="4.67" shape="123.74,-0.43 124.83,-1.37 125.70,-1.54 126.37,-0.94 126.82,0.43"/>
    </edge>
    <edge id=":1841947666_0" function="internal">
        <lane id=":1841947666_0_0" index="0" disallow="tram rail_urban rail rail_electric rail_fast ship" speed="8.33" length="11.23" shape="126.40,111.35 117.03,117.53"/>
    </edge>
    <edge id=":1841947666_1" function="internal">
        <lane id=":1841947666_1_0" index="0" disallow="tram rail_urban rail rail_electric rail_fast ship" speed="6.63" length="11.01" shape="126.40,111.35 124.05,112.29 121.93,111.83 120.05,109.97 118.41,106.70"/>
    </edge>
    <edge id=":1841947666_2" function="internal">
        <lane id=":1841947666_2_0" index="0" disallow="tram rail_urban rail rail_electric rail_fast ship" speed="3.65" length="4.67" shape="126.40,111.35 124.96,111.35 124.19,110.90 124.07,110.01 124.63,108.68"/>
    </edge>
    <edge id=":1841947666_3" function="internal">
        <lane id=":1841947666_3_0" index="0" disallow="tram rail_urban rail rail_electric rail_fast ship" speed="7.24" length="9.55" shape="115.28,114.86 117.35,113.12 118.56,111.18 118.92,109.04 118.41,106.70"/>
    </edge>
    <edge id=":1841947666_4" function="internal">
        <lane id=":1841947666_4_0" index="0" disallow="tram rail_urban rail rail_electric rail_fast ship" speed="8.33" length="11.20" shape="115.28,114.86 124.63,108.68"/>
    </edge>
    <edge id=":1841947666_5" function="internal">
        <lane id=":1841947666_5_0" index="0" disallow="tram rail_urban rail rail_electric rail_fast ship" speed="3.65" length="4.67" shape="115.28,114.86 116.72,114.87 117.50,115.32 117.60,116.21 117.03,117.53"/>
    </edge>
    <edge id=":1841947668_0" function="internal">
        <lane id=":1841947668_0_0" index="0" disallow="tram rail_urban rail rail_electric rail_fast ship" speed="13.89" length="0.10" shape="60.08,43.25 60.08,43.25"/>
    </edge>
    <edge id=":1909989498_0" function="internal">
        <lane id=":1909989498_0_0" index="0" disallow="tram rail_urban rail rail_electric rail_fast ship" speed="3.65" length="4.67" shape="224.81,73.21 225.62,72.02 226.42,71.62 227.22,72.02 228.01,73.22"/>
    </edge>
    <edge id=":3104145124_0" function="internal">
        <lane id=":3104145124_0_0" index="0" disallow="tram rail_urban rail rail_electric rail_fast ship" speed="6.52" length="9.07" shape="64.35,144.73 66.04,146.57 67.90,147.43 69.94,147.31 72.16,146.21"/>
    </edge>
    <edge id=":3104145124_1" function="internal">
        <lane id=":3104145124_1_0" index="0" disallow="tram rail_urban rail rail_electric rail_fast ship" speed="8.33" length="11.25" shape="62.79,152.44 72.16,146.21"/>
    </edge>
    <edge id=":340077119_0" function="internal">
        <lane id=":340077119_0_0" index="0" disallow="tram rail_urban rail rail_electric rail_fast ship" speed="13.89" length="8.56" shape="217.96,198.64 211.63,192.87"/>
    </edge>
    <edge id=":340077119_1" function="internal">
        <lane id=":340077119_1_0" index="0" disallow="tram rail_urban rail rail_electric rail_fast ship" speed="7.22" length="2.38" shape="217.96,198.64 216.66,196.64"/>
    </edge>
    <edge id=":340077119_2" function="internal">
        <lane id=":340077119_2_0" index="0" disallow="tram rail_urban rail rail_electric rail_fast ship" speed="3.65" length="1.44" shape="217.96,198.64 217.65,197.23"/>
    </edge>
    <edge id=":340077119_6" function="internal">
        <lane id=":340077119_6_0" index="0" disallow="tram rail_urban rail rail_electric rail_fast ship" speed="7.22" length="8.91" shape="216.66,196.64 216.57,194.33 217.69,191.71 220.03,188.78"/>
    </edge>
    <edge id=":340077119_7" function="internal">
        <lane id=":340077119_7_0" index="0" disallow="tram rail_urban rail rail_electric rail_fast ship" speed="3.65" length="3.23" shape="217.65,197.23 217.92,196.37 218.76,196.08 220.18,196.33"/>
    </edge>
    <edge id=":340077119_3" function="internal">
        <lane id=":340077119_3_0" index="0" disallow="tram rail_urban rail rail_electric rail_fast ship" speed="6.06" length="7.29" shape="213.67,190.41 215.08,191.14 216.60,191.12 218.25,190.33 220.03,188.78"/>
    </edge>
    <edge id=":340077119_4" function="internal">
        <lane id=":340077119_4_0" index="0" disallow="tram rail_urban rail rail_electric rail_fast ship" speed="13.89" length="8.80" shape="213.67,190.41 220.18,196.33"/>
    </edge>
    <edge id=":340077119_5" function="internal">
        <lane id=":340077119_5_0" index="0" disallow="tram rail_urban rail rail_electric rail_fast ship" speed="3.65" length="1.44" shape="213.67,190.41 214.09,191.79"/>
    </edge>
    <edge id=":340077119_8" function="internal">
        <lane id=":340077119_8_0" index="0" disallow="tram rail_urban rail rail_electric rail_fast ship" speed="3.65" length="3.23" shape="214.09,191.79 213.88,192.66 213.06,193.02 211.63,192.87"/>
    </edge>
    <edge id=":340077135_0" function="internal">
        <lane id=":340077135_0_0" index="0" disallow="tram rail_urban rail rail_electric rail_fast ship" speed="13.89" length="0.28" shape="58.59,220.13 58.52,220.09 58.47,220.07 58.41,220.05 58.33,220.03"/>
    </edge>
    <edge id=":340077152_0" function="internal">
        <lane id=":340077152_0_0" index="0" disallow="tram rail_urban rail rail_electric rail_fast ship" speed="3.65" length="4.67" shape="210.37,425.24 210.15,426.66 209.59,427.36 208.70,427.34 207.47,426.59"/>
    </edge>
    <edge id=":340077164_0" function="internal">
        <lane id=":340077164_0_0" index="0" disallow="tram rail_urban rail rail_electric rail_fast ship" speed="7.52" length="10.01" shape="119.95,238.93 118.43,236.47 116.61,234.85 114.49,234.08 112.07,234.15"/>
    </edge>
    <edge id=":340077164_1" function="internal">
        <lane id=":340077164_1_0" index="0" disallow="tram rail_urban rail rail_electric rail_fast ship" speed="3.65" length="1.44" shape="119.95,238.93 120.16,237.50"/>
    </edge>
    <edge id=":340077164_4" function="internal">
        <lane id=":340077164_4_0" index="0" disallow="tram rail_urban rail rail_electric rail_fast ship" speed="3.65" length="3.23" shape="120.16,237.50 120.71,236.80 121.61,236.82 122.84,237.56"/>
    </edge>
    <edge id=":340077164_2" function="internal">
        <lane id=":340077164_2_0" index="0" disallow="tram rail_urban rail rail_electric rail_fast ship" speed="6.28" length="9.04" shape="125.83,230.44 123.59,231.59 122.35,233.16 122.10,235.15 122.84,237.56"/>
    </edge>
    <edge id=":340077164_3" function="internal">
        <lane id=":340077164_3_0" index="0" disallow="tram rail_urban rail rail_electric rail_fast ship" speed="13.89" length="14.26" shape="125.83,230.44 122.38,231.58 119.02,232.56 115.63,233.40 112.07,234.15"/>
    </edge>
    <edge id=":7714117380_0" function="internal">
        <lane id=":7714117380_0_0" index="0" disallow="tram rail_urban rail rail_electric rail_fast ship" speed="13.89" length="5.81" shape="44.84,218.58 43.15,218.93 42.02,219.26 40.92,219.72 39.37,220.47"/>
    </edge>
    <edge id=":7714117380_1" function="internal">
        <lane id=":7714117380_1_0" index="0" allow="pedestrian delivery bicycle" speed="5.55" length="5.03" shape="44.84,218.58 43.58,218.64 42.49,218.28 41.56,217.51 40.79,216.32"/>
    </edge>
    <edge id=":7714117382_0" function="internal">
        <lane id=":7714117382_0_0" index="0" allow="pedestrian delivery bicycle" speed="5.07" length="5.00" shape="39.07,212.84 38.30,211.71 37.35,211.10 36.22,211.00 34.91,211.40"/>
    </edge>
    <edge id=":7714117382_1" function="internal">
        <lane id=":7714117382_1_0" index="0" allow="pedestrian delivery bicycle" speed="5.04" length="5.00" shape="36.38,207.27 36.79,208.58 36.68,209.71 36.05,210.65 34.91,211.40"/>
    </edge>
    <edge id=":7714177903_0" function="internal">
        <lane id=":7714177903_0_0" index="0" disallow="tram rail_urban rail rail_electric rail_fast ship" speed="12.63" length="1.52" shape="142.67,184.50 142.29,184.74 142.01,184.88 141.72,184.98 141.28,185.10"/>
    </edge>
    <edge id=":7714177903_1" function="internal">
        <lane id=":7714177903_1_0" index="0" disallow="tram rail_urban rail rail_electric rail_fast ship" speed="13.89" length="0.51" shape="140.50,181.99 140.65,181.96 140.75,181.92 140.84,181.88 140.97,181.80"/>
    </edge>
    <edge id=":7714177904_0" function="internal">
        <lane id=":7714177904_0_0" index="0" disallow="tram rail_urban rail rail_electric rail_fast ship" speed="7.45" length="12.16" shape="140.36,167.63 137.15,166.86 134.45,167.32 132.26,169.01 130.59,171.93"/>
    </edge>
    <edge id=":7714177904_1" function="internal">
        <lane id=":7714177904_1_0" index="0" disallow="tram rail_urban rail rail_electric rail_fast ship" speed="12.06" length="3.12" shape="140.36,167.63 137.41,166.60"/>
    </edge>
    <edge id=":7714177904_2" function="internal">
        <lane id=":7714177904_2_0" index="0" disallow="tram rail_urban rail rail_electric rail_fast ship" speed="3.97" length="2.08" shape="140.36,167.63 138.83,167.02 138.56,166.67"/>
    </edge>
    <edge id=":7714177904_9" function="internal">
        <lane id=":7714177904_9_0" index="0" disallow="tram rail_urban rail rail_electric rail_fast ship" speed="12.06" length="9.60" shape="137.41,166.60 137.06,166.47 134.17,165.39 131.76,163.80 129.89,161.13"/>
    </edge>
    <edge id=":7714177904_10" function="internal">
        <lane id=":7714177904_10_0" index="0" disallow="tram rail_urban rail rail_electric rail_fast ship" speed="3.97" length="3.24" shape="138.56,166.67 138.20,166.22 138.47,165.23 139.62,164.06"/>
    </edge>
    <edge id=":7714177904_3" function="internal">
        <lane id=":7714177904_3_0" index="0" disallow="tram rail_urban rail rail_electric rail_fast ship" speed="7.87" length="8.48" shape="132.80,159.78 133.91,161.53 135.42,162.83 137.32,163.67 139.62,164.06"/>
    </edge>
    <edge id=":7714177904_4" function="internal">
        <lane id=":7714177904_4_0" index="0" disallow="tram rail_urban rail rail_electric rail_fast ship" speed="11.37" length="12.57" shape="132.80,159.78 133.19,161.70 132.96,164.36 132.09,167.77 130.59,171.93"/>
    </edge>
    <edge id=":7714177904_5" function="internal">
        <lane id=":7714177904_5_0" index="0" disallow="tram rail_urban rail rail_electric rail_fast ship" speed="3.65" length="4.67" shape="132.80,159.78 132.57,161.21 132.02,161.91 131.12,161.88 129.89,161.13"/>
    </edge>
    <edge id=":7714177904_6" function="internal">
        <lane id=":7714177904_6_0" index="0" disallow="tram rail_urban rail rail_electric rail_fast ship" speed="7.57" length="8.37" shape="128.48,168.90 129.78,166.97 130.45,165.03 130.48,163.08 129.89,161.13"/>
    </edge>
    <edge id=":7714177904_7" function="internal">
        <lane id=":7714177904_7_0" index="0" disallow="tram rail_urban rail rail_electric rail_fast ship" speed="10.33" length="12.62" shape="128.48,168.90 130.83,166.62 133.48,165.05 136.40,164.20 139.62,164.06"/>
    </edge>
    <edge id=":7714177904_8" function="internal">
        <lane id=":7714177904_8_0" index="0" disallow="tram rail_urban rail rail_electric rail_fast ship" speed="4.00" length="1.48" shape="128.48,168.90 129.96,168.87"/>
    </edge>
    <edge id=":7714177904_11" function="internal">
        <lane id=":7714177904_11_0" index="0" disallow="tram rail_urban rail rail_electric rail_fast ship" speed="4.00" length="3.91" shape="129.96,168.87 130.14,168.86 131.05,169.36 131.20,170.38 130.59,171.93"/>
    </edge>
    <edge id=":7714177905_0" function="internal">
        <lane id=":7714177905_0_0" index="0" disallow="tram rail_urban rail rail_electric rail_fast ship" speed="13.89" length="1.19" shape="127.07,155.03 126.92,154.71 126.84,154.48 126.78,154.25 126.71,153.90"/>
    </edge>
    <edge id=":7714177905_1" function="internal">
        <lane id=":7714177905_1_0" index="0" disallow="tram rail_urban rail rail_electric rail_fast ship" speed="13.89" length="0.40" shape="129.85,153.31 129.88,153.42 129.90,153.50 129.93,153.58 129.97,153.69"/>
    </edge>
    <edge id=":924267537_0" function="internal">
        <lane id=":924267537_0_0" index="0" disallow="tram rail_urban rail rail_electric rail_fast ship" speed="6.06" length="7.46" shape="211.48,192.74 210.03,191.98 208.47,192.02 206.81,192.84 205.03,194.47"/>
    </edge>
    <edge id=":924267537_1" function="internal">
        <lane id=":924267537_1_0" index="0" disallow="tram rail_urban rail rail_electric rail_fast ship" speed="13.89" length="9.08" shape="211.48,192.74 204.61,186.81"/>
    </edge>
    <edge id=":924267537_2" function="internal">
        <lane id=":924267537_2_0" index="0" disallow="tram rail_urban rail rail_electric rail_fast ship" speed="3.65" length="1.44" shape="211.48,192.74 211.06,191.36"/>
    </edge>
    <edge id=":924267537_6" function="internal">
        <lane id=":924267537_6_0" index="0" disallow="tram rail_urban rail rail_electric rail_fast ship" speed="3.65" length="3.23" shape="211.06,191.36 211.27,190.49 212.09,190.13 213.52,190.28"/>
    </edge>
    <edge id=":924267537_3" function="internal">
        <lane id=":924267537_3_0" index="0" disallow="tram rail_urban rail rail_electric rail_fast ship" speed="13.89" length="8.98" shape="206.73,184.41 213.52,190.28"/>
    </edge>
    <edge id=":924267537_4" function="internal">
        <lane id=":924267537_4_0" index="0" disallow="tram rail_urban rail rail_electric rail_fast ship" speed="7.23" length="2.45" shape="206.73,184.41 208.16,186.41"/>
    </edge>
    <edge id=":924267537_5" function="internal">
        <lane id=":924267537_5_0" index="0" disallow="tram rail_urban rail rail_electric rail_fast ship" speed="3.65" length="1.44" shape="206.73,184.41 207.10,185.81"/>
    </edge>
    <edge id=":924267537_7" function="internal">
        <lane id=":924267537_7_0" index="0" disallow="tram rail_urban rail rail_electric rail_fast ship" speed="7.23" length="9.03" shape="208.16,186.41 208.36,188.75 207.31,191.43 205.03,194.47"/>
    </edge>
    <edge id=":924267537_8" function="internal">
        <lane id=":924267537_8_0" index="0" disallow="tram rail_urban rail rail_electric rail_fast ship" speed="3.65" length="3.23" shape="207.10,185.81 206.87,186.67 206.04,187.01 204.61,186.81"/>
    </edge>
    <edge id=":924285967_0" function="internal">
        <lane id=":924285967_0_0" index="0" disallow="tram rail_urban rail rail_electric rail_fast ship" speed="13.89" length="10.90" shape="169.47,131.89 164.29,122.30"/>
    </edge>
    <edge id=":924285967_1" function="internal">
        <lane id=":924285967_1_0" index="0" disallow="tram rail_urban rail rail_electric rail_fast ship" speed="7.33" length="2.46" shape="169.47,131.89 168.85,129.51"/>
    </edge>
    <edge id=":924285967_2" function="internal">
        <lane id=":924285967_2_0" index="0" disallow="tram rail_urban rail rail_electric rail_fast ship" speed="3.65" length="1.44" shape="169.47,131.89 169.63,130.45"/>
    </edge>
    <edge id=":924285967_6" function="internal">
        <lane id=":924285967_6_0" index="0" disallow="tram rail_urban rail rail_electric rail_fast ship" speed="7.33" length="9.13" shape="168.85,129.51 169.51,127.22 171.43,125.02 174.63,122.91"/>
    </edge>
    <edge id=":924285967_7" function="internal">
        <lane id=":924285967_7_0" index="0" disallow="tram rail_urban rail rail_electric rail_fast ship" speed="3.65" length="3.23" shape="169.63,130.45 170.16,129.73 171.05,129.72 172.32,130.41"/>
    </edge>
    <edge id=":924285967_3" function="internal">
        <lane id=":924285967_3_0" index="0" disallow="tram rail_urban rail rail_electric rail_fast ship" speed="6.51" length="8.92" shape="167.08,120.73 168.57,122.66 170.32,123.67 172.34,123.76 174.63,122.91"/>
    </edge>
    <edge id=":924285967_4" function="internal">
        <lane id=":924285967_4_0" index="0" disallow="tram rail_urban rail rail_electric rail_fast ship" speed="13.89" length="11.01" shape="167.08,120.73 172.32,130.41"/>
    </edge>
    <edge id=":924285967_5" function="internal">
        <lane id=":924285967_5_0" index="0" disallow="tram rail_urban rail rail_electric rail_fast ship" speed="3.65" length="1.44" shape="167.08,120.73 166.98,122.17"/>
    </edge>
    <edge id=":924285967_8" function="internal">
        <lane id=":924285967_8_0" index="0" disallow="tram rail_urban rail rail_electric rail_fast ship" speed="3.65" length="3.23" shape="166.98,122.17 166.47,122.91 165.58,122.95 164.29,122.30"/>
    </edge>
    <edge id=":924286005_0" function="internal">
        <lane id=":924286005_0_0" index="0" disallow="tram rail_urban rail rail_electric rail_fast ship" speed="7.56" length="13.04" shape="114.31,126.28 112.37,122.83 111.86,119.80 112.77,117.18 115.11,114.97"/>
    </edge>
    <edge id=":924286005_1" function="internal">
        <lane id=":924286005_1_0" index="0" disallow="tram rail_urban rail rail_electric rail_fast ship" speed="3.65" length="4.67" shape="114.31,126.28 114.25,124.84 114.67,124.05 115.55,123.90 116.90,124.40"/>
    </edge>
    <edge id=":924286005_2" function="internal">
        <lane id=":924286005_2_0" index="0" disallow="tram rail_urban rail rail_electric rail_fast ship" speed="5.97" length="7.71" shape="116.87,117.64 115.63,118.88 115.22,120.42 115.65,122.26 116.90,124.40"/>
    </edge>
    <edge id=":924286005_3" function="internal">
        <lane id=":924286005_3_0" index="0" disallow="tram rail_urban rail rail_electric rail_fast ship" speed="3.65" length="1.44" shape="116.87,117.64 115.42,117.63"/>
    </edge>
    <edge id=":924286005_6" function="internal">
        <lane id=":924286005_6_0" index="0" disallow="tram rail_urban rail rail_electric rail_fast ship" speed="3.65" length="3.23" shape="115.42,117.63 114.65,117.18 114.55,116.29 115.11,114.97"/>
    </edge>
    <edge id=":924286005_4" function="internal">
        <lane id=":924286005_4_0" index="0" disallow="tram rail_urban rail rail_electric rail_fast ship" speed="8.33" length="12.89" shape="105.34,123.35 108.03,121.25 110.22,119.15 112.41,117.04 115.11,114.97"/>
    </edge>
    <edge id=":924286005_5" function="internal">
        <lane id=":924286005_5_0" index="0" disallow="tram rail_urban rail rail_electric rail_fast ship" speed="7.82" length="9.19" shape="105.34,123.35 108.79,121.60 111.87,121.19 113.96,121.91"/>
    </edge>
    <edge id=":924286005_7" function="internal">
        <lane id=":924286005_7_0" index="0" disallow="tram rail_urban rail rail_electric rail_fast ship" speed="7.82" length="3.91" shape="113.96,121.91 114.57,122.12 116.90,124.40"/>
    </edge>
    <edge id=":924421858_0" function="internal">
        <lane id=":924421858_0_0" index="0" disallow="tram rail_urban rail rail_electric rail_fast ship" speed="13.89" length="6.33" shape="97.37,235.04 95.50,234.88 94.23,234.67 92.98,234.38 91.14,233.97"/>
    </edge>
    <edge id=":924421871_0" function="internal">
        <lane id=":924421871_0_0" index="0" disallow="tram rail_urban rail rail_electric rail_fast ship" speed="8.33" length="4.63" shape="41.54,165.50 42.83,165.04 43.69,164.66 44.51,164.18 45.67,163.44"/>
    </edge>
    <edge id=":924531736_0" function="internal">