<?xml version="1.0" encoding="UTF-8"?>

<!-- generated on 2025-02-03 16:10:25 by Eclipse SUMO netedit Version 1.15.0
-->

<routes xmlns:xsi="http://www.w3.org/2001/XMLSchema-instance" xsi:noNamespaceSchemaLocation="http://sumo.dlr.de/xsd/routes_file.xsd">
    <!-- Vehicles, persons and containers (sorted by depart) -->
    <trip id="t_0" depart="0.00" from="826211723#0" to="-1263364413#0" via="175500462#0"/>
</routes>
