<?xml version="1.0" encoding="UTF-8"?>

<!-- generated on 29 janv. 2025 at 16:24:41 by MAJ for SUMO netedit Version 1.15.0
<configuration xmlns:xsi="http://www.w3.org/2001/XMLSchema-instance" xsi:noNamespaceSchemaLocation="http://sumo.dlr.de/xsd/netconvertConfiguration.xsd">
	<input>
		<sumo-net-file value="/home/etudiant/na222180/TP/s6/sae/netedit/test/test.net.xml"/>
	</input>

	<output>
		<output-file value="/home/etudiant/na222180/TP/s6/sae/netedit/test/test.net.xml"/>
	</output>

	<processing>
		<geometry.min-radius.fix.railways value="false"/>
		<geometry.max-grade.fix value="false"/>
		<offset.disable-normalization value="true"/>
		<lefthand value="0"/>
	</processing>

	<junctions>
		<no-turnarounds value="true"/>
		<junctions.corner-detail value="5"/>
		<junctions.limit-turn-speed value="5.50"/>
		<rectangular-lane-cut value="0"/>
	</junctions>

	<pedestrian>
		<walkingareas value="0"/>
		<walkingareas value="0"/>
	</pedestrian>

</configuration>
-->

<net version="1.9" junctionCornerDetail="5" limitTurnSpeed="5.50" xmlns:xsi="http://www.w3.org/2001/XMLSchema-instance" xsi:noNamespaceSchemaLocation="http://sumo.dlr.de/xsd/net_file.xsd">

	<edge id="E1" from="0" to="1" priority="-1">
		<lane id="E1_" index="0" speed="13.89" width="0.50" length="290.0" shape="-32.83,65.57 32.11,60.58"/>
	</edge>

	<edge id="E2" from="0" to="2" priority="-1">
		<lane id="E2_" index="0" speed="13.89" width="0.50" length="450.0" shape="-32.83,65.57 32.11,60.58"/>
	</edge>

	<edge id="E3" from="0" to="3" priority="-1">
		<lane id="E3_" index="0" speed="13.89" width="0.50" length="370.0" shape="-32.83,65.57 32.11,60.58"/>
	</edge>

	<edge id="E4" from="0" to="4" priority="-1">
		<lane id="E4_" index="0" speed="13.89" width="0.50" length="440.0" shape="-32.83,65.57 32.11,60.58"/>
	</edge>

	<edge id="E5" from="0" to="5" priority="-1">
		<lane id="E5_" index="0" speed="13.89" width="0.50" length="340.0" shape="-32.83,65.57 32.11,60.58"/>
	</edge>

	<edge id="E6" from="0" to="6" priority="-1">
		<lane id="E6_" index="0" speed="13.89" width="0.50" length="410.0" shape="-32.83,65.57 32.11,60.58"/>
	</edge>

	<edge id="E7" from="0" to="7" priority="-1">
		<lane id="E7_" index="0" speed="13.89" width="0.50" length="350.0" shape="-32.83,65.57 32.11,60.58"/>
	</edge>

	<edge id="E8" from="0" to="8" priority="-1">
		<lane id="E8_" index="0" speed="13.89" width="0.50" length="270.0" shape="-32.83,65.57 32.11,60.58"/>
	</edge>

	<edge id="E9" from="0" to="9" priority="-1">
		<lane id="E9_" index="0" speed="13.89" width="0.50" length="430.0" shape="-32.83,65.57 32.11,60.58"/>
	</edge>

	<edge id="E10" from="0" to="10" priority="-1">
		<lane id="E10_" index="0" speed="13.89" width="0.50" length="340.0" shape="-32.83,65.57 32.11,60.58"/>
	</edge>

	<edge id="E11" from="0" to="11" priority="-1">
		<lane id="E11_" index="0" speed="13.89" width="0.50" length="350.0" shape="-32.83,65.57 32.11,60.58"/>
	</edge>

	<edge id="E12" from="0" to="12" priority="-1">
		<lane id="E12_" index="0" speed="13.89" width="0.50" length="320.0" shape="-32.83,65.57 32.11,60.58"/>
	</edge>

	<edge id="E13" from="0" to="13" priority="-1">
		<lane id="E13_" index="0" speed="13.89" width="0.50" length="370.0" shape="-32.83,65.57 32.11,60.58"/>
	</edge>

	<edge id="E14" from="0" to="14" priority="-1">
		<lane id="E14_" index="0" speed="13.89" width="0.50" length="400.0" shape="-32.83,65.57 32.11,60.58"/>
	</edge>

	<edge id="E15" from="0" to="15" priority="-1">
		<lane id="E15_" index="0" speed="13.89" width="0.50" length="340.0" shape="-32.83,65.57 32.11,60.58"/>
	</edge>

	<edge id="E16" from="0" to="16" priority="-1">
		<lane id="E16_" index="0" speed="13.89" width="0.50" length="360.0" shape="-32.83,65.57 32.11,60.58"/>
	</edge>

	<edge id="E17" from="0" to="17" priority="-1">
		<lane id="E17_" index="0" speed="13.89" width="0.50" length="290.0" shape="-32.83,65.57 32.11,60.58"/>
	</edge>

	<edge id="E18" from="0" to="18" priority="-1">
		<lane id="E18_" index="0" speed="13.89" width="0.50" length="590.0" shape="-32.83,65.57 32.11,60.58"/>
	</edge>

	<edge id="E19" from="0" to="19" priority="-1">
		<lane id="E19_" index="0" speed="13.89" width="0.50" length="320.0" shape="-32.83,65.57 32.11,60.58"/>
	</edge>

	<edge id="E20" from="0" to="20" priority="-1">
		<lane id="E20_" index="0" speed="13.89" width="0.50" length="410.0" shape="-32.83,65.57 32.11,60.58"/>
	</edge>

	<edge id="E21" from="0" to="21" priority="-1">
		<lane id="E21_" index="0" speed="13.89" width="0.50" length="410.0" shape="-32.83,65.57 32.11,60.58"/>
	</edge>

	<edge id="E22" from="0" to="22" priority="-1">
		<lane id="E22_" index="0" speed="13.89" width="0.50" length="400.0" shape="-32.83,65.57 32.11,60.58"/>
	</edge>

	<edge id="E23" from="0" to="23" priority="-1">
		<lane id="E23_" index="0" speed="13.89" width="0.50" length="330.0" shape="-32.83,65.57 32.11,60.58"/>
	</edge>

	<edge id="E24" from="0" to="24" priority="-1">
		<lane id="E24_" index="0" speed="13.89" width="0.50" length="440.0" shape="-32.83,65.57 32.11,60.58"/>
	</edge>

	<edge id="E25" from="0" to="25" priority="-1">
		<lane id="E25_" index="0" speed="13.89" width="0.50" length="340.0" shape="-32.83,65.57 32.11,60.58"/>
	</edge>

	<edge id="E26" from="0" to="26" priority="-1">
		<lane id="E26_" index="0" speed="13.89" width="0.50" length="310.0" shape="-32.83,65.57 32.11,60.58"/>
	</edge>

	<edge id="E27" from="0" to="27" priority="-1">
		<lane id="E27_" index="0" speed="13.89" width="0.50" length="460.0" shape="-32.83,65.57 32.11,60.58"/>
	</edge>

	<edge id="E28" from="0" to="28" priority="-1">
		<lane id="E28_" index="0" speed="13.89" width="0.50" length="430.0" shape="-32.83,65.57 32.11,60.58"/>
	</edge>

	<edge id="E29" from="0" to="29" priority="-1">
		<lane id="E29_" index="0" speed="13.89" width="0.50" length="410.0" shape="-32.83,65.57 32.11,60.58"/>
	</edge>

	<edge id="E30" from="0" to="30" priority="-1">
		<lane id="E30_" index="0" speed="13.89" width="0.50" length="410.0" shape="-32.83,65.57 32.11,60.58"/>
	</edge>

	<edge id="E31" from="0" to="31" priority="-1">
		<lane id="E31_" index="0" speed="13.89" width="0.50" length="400.0" shape="-32.83,65.57 32.11,60.58"/>
	</edge>

	<edge id="E32" from="0" to="32" priority="-1">
		<lane id="E32_" index="0" speed="13.89" width="0.50" length="430.0" shape="-32.83,65.57 32.11,60.58"/>
	</edge>

	<edge id="E33" from="0" to="33" priority="-1">
		<lane id="E33_" index="0" speed="13.89" width="0.50" length="470.0" shape="-32.83,65.57 32.11,60.58"/>
	</edge>

	<edge id="E34" from="0" to="34" priority="-1">
		<lane id="E34_" index="0" speed="13.89" width="0.50" length="480.0" shape="-32.83,65.57 32.11,60.58"/>
	</edge>

	<edge id="E35" from="0" to="35" priority="-1">
		<lane id="E35_" index="0" speed="13.89" width="0.50" length="430.0" shape="-32.83,65.57 32.11,60.58"/>
	</edge>

	<edge id="E36" from="0" to="36" priority="-1">
		<lane id="E36_" index="0" speed="13.89" width="0.50" length="440.0" shape="-32.83,65.57 32.11,60.58"/>
	</edge>

	<edge id="E37" from="0" to="37" priority="-1">
		<lane id="E37_" index="0" speed="13.89" width="0.50" length="580.0" shape="-32.83,65.57 32.11,60.58"/>
	</edge>

	<edge id="E38" from="0" to="38" priority="-1">
		<lane id="E38_" index="0" speed="13.89" width="0.50" length="650.0" shape="-32.83,65.57 32.11,60.58"/>
	</edge>

	<edge id="E39" from="0" to="39" priority="-1">
		<lane id="E39_" index="0" speed="13.89" width="0.50" length="690.0" shape="-32.83,65.57 32.11,60.58"/>
	</edge>

	<edge id="E40" from="0" to="40" priority="-1">
		<lane id="E40_" index="0" speed="13.89" width="0.50" length="730.0" shape="-32.83,65.57 32.11,60.58"/>
	</edge>

	<edge id="E41" from="0" to="41" priority="-1">
		<lane id="E41_" index="0" speed="13.89" width="0.50" length="580.0" shape="-32.83,65.57 32.11,60.58"/>
	</edge>

	<edge id="E42" from="0" to="42" priority="-1">
		<lane id="E42_" index="0" speed="13.89" width="0.50" length="670.0" shape="-32.83,65.57 32.11,60.58"/>
	</edge>

	<edge id="E43" from="0" to="43" priority="-1">
		<lane id="E43_" index="0" speed="13.89" width="0.50" length="710.0" shape="-32.83,65.57 32.11,60.58"/>
	</edge>

	<edge id="E44" from="0" to="44" priority="-1">
		<lane id="E44_" index="0" speed="13.89" width="0.50" length="670.0" shape="-32.83,65.57 32.11,60.58"/>
	</edge>

	<edge id="E45" from="0" to="45" priority="-1">
		<lane id="E45_" index="0" speed="13.89" width="0.50" length="780.0" shape="-32.83,65.57 32.11,60.58"/>
	</edge>

	<edge id="E46" from="0" to="46" priority="-1">
		<lane id="E46_" index="0" speed="13.89" width="0.50" length="660.0" shape="-32.83,65.57 32.11,60.58"/>
	</edge>

	<edge id="E47" from="0" to="47" priority="-1">
		<lane id="E47_" index="0" speed="13.89" width="0.50" length="720.0" shape="-32.83,65.57 32.11,60.58"/>
	</edge>

	<edge id="E48" from="0" to="48" priority="-1">
		<lane id="E48_" index="0" speed="13.89" width="0.50" length="700.0" shape="-32.83,65.57 32.11,60.58"/>
	</edge>

	<edge id="E49" from="0" to="49" priority="-1">
		<lane id="E49_" index="0" speed="13.89" width="0.50" length="720.0" shape="-32.83,65.57 32.11,60.58"/>
	</edge>

	<edge id="E50" from="0" to="50" priority="-1">
		<lane id="E50_" index="0" speed="13.89" width="0.50" length="770.0" shape="-32.83,65.57 32.11,60.58"/>
	</edge>

	<edge id="E51" from="0" to="51" priority="-1">
		<lane id="E51_" index="0" speed="13.89" width="0.50" length="640.0" shape="-32.83,65.57 32.11,60.58"/>
	</edge>

	<edge id="E52" from="0" to="52" priority="-1">
		<lane id="E52_" index="0" speed="13.89" width="0.50" length="1020.0" shape="-32.83,65.57 32.11,60.58"/>
	</edge>

	<edge id="E53" from="0" to="53" priority="-1">
		<lane id="E53_" index="0" speed="13.89" width="0.50" length="1070.0" shape="-32.83,65.57 32.11,60.58"/>
	</edge>

	<edge id="E54" from="0" to="54" priority="-1">
		<lane id="E54_" index="0" speed="13.89" width="0.50" length="1040.0" shape="-32.83,65.57 32.11,60.58"/>
	</edge>

	<edge id="E55" from="0" to="55" priority="-1">
		<lane id="E55_" index="0" speed="13.89" width="0.50" length="1060.0" shape="-32.83,65.57 32.11,60.58"/>
	</edge>

	<edge id="E56" from="0" to="56" priority="-1">
		<lane id="E56_" index="0" speed="13.89" width="0.50" length="1140.0" shape="-32.83,65.57 32.11,60.58"/>
	</edge>

	<edge id="E57" from="0" to="57" priority="-1">
		<lane id="E57_" index="0" speed="13.89" width="0.50" length="1070.0" shape="-32.83,65.57 32.11,60.58"/>
	</edge>

	<edge id="E58" from="0" to="58" priority="-1">
		<lane id="E58_" index="0" speed="13.89" width="0.50" length="1050.0" shape="-32.83,65.57 32.11,60.58"/>
	</edge>

	<edge id="E59" from="0" to="59" priority="-1">
		<lane id="E59_" index="0" speed="13.89" width="0.50" length="930.0" shape="-32.83,65.57 32.11,60.58"/>
	</edge>

	<edge id="E60" from="0" to="60" priority="-1">
		<lane id="E60_" index="0" speed="13.89" width="0.50" length="1180.0" shape="-32.83,65.57 32.11,60.58"/>
	</edge>

	<edge id="E61" from="0" to="61" priority="-1">
		<lane id="E61_" index="0" speed="13.89" width="0.50" length="1000.0" shape="-32.83,65.57 32.11,60.58"/>
	</edge>

	<edge id="E62" from="0" to="62" priority="-1">
		<lane id="E62_" index="0" speed="13.89" width="0.50" length="1120.0" shape="-32.83,65.57 32.11,60.58"/>
	</edge>

	<edge id="E63" from="0" to="63" priority="-1">
		<lane id="E63_" index="0" speed="13.89" width="0.50" length="1080.0" shape="-32.83,65.57 32.11,60.58"/>
	</edge>

	<edge id="E64" from="0" to="64" priority="-1">
		<lane id="E64_" index="0" speed="13.89" width="0.50" length="1070.0" shape="-32.83,65.57 32.11,60.58"/>
	</edge>

	<edge id="E65" from="0" to="65" priority="-1">
		<lane id="E65_" index="0" speed="13.89" width="0.50" length="980.0" shape="-32.83,65.57 32.11,60.58"/>
	</edge>

	<edge id="E66" from="0" to="66" priority="-1">
		<lane id="E66_" index="0" speed="13.89" width="0.50" length="1110.0" shape="-32.83,65.57 32.11,60.58"/>
	</edge>

	<edge id="E67" from="0" to="67" priority="-1">
		<lane id="E67_" index="0" speed="13.89" width="0.50" length="1010.0" shape="-32.83,65.57 32.11,60.58"/>
	</edge>

	<edge id="E68" from="0" to="68" priority="-1">
		<lane id="E68_" index="0" speed="13.89" width="0.50" length="1020.0" shape="-32.83,65.57 32.11,60.58"/>
	</edge>

	<edge id="E69" from="0" to="69" priority="-1">
		<lane id="E69_" index="0" speed="13.89" width="0.50" length="1060.0" shape="-32.83,65.57 32.11,60.58"/>
	</edge>

	<edge id="E70" from="0" to="70" priority="-1">
		<lane id="E70_" index="0" speed="13.89" width="0.50" length="1060.0" shape="-32.83,65.57 32.11,60.58"/>
	</edge>

	<edge id="E71" from="0" to="71" priority="-1">
		<lane id="E71_" index="0" speed="13.89" width="0.50" length="1140.0" shape="-32.83,65.57 32.11,60.58"/>
	</edge>

	<edge id="E72" from="0" to="72" priority="-1">
		<lane id="E72_" index="0" speed="13.89" width="0.50" length="1110.0" shape="-32.83,65.57 32.11,60.58"/>
	</edge>

	<edge id="E73" from="0" to="73" priority="-1">
		<lane id="E73_" index="0" speed="13.89" width="0.50" length="1090.0" shape="-32.83,65.57 32.11,60.58"/>
	</edge>

	<edge id="E74" from="0" to="74" priority="-1">
		<lane id="E74_" index="0" speed="13.89" width="0.50" length="1110.0" shape="-32.83,65.57 32.11,60.58"/>
	</edge>

	<edge id="E75" from="0" to="75" priority="-1">
		<lane id="E75_" index="0" speed="13.89" width="0.50" length="890.0" shape="-32.83,65.57 32.11,60.58"/>
	</edge>

	<edge id="E76" from="0" to="76" priority="-1">
		<lane id="E76_" index="0" speed="13.89" width="0.50" length="1130.0" shape="-32.83,65.57 32.11,60.58"/>
	</edge>

	<edge id="E77" from="0" to="77" priority="-1">
		<lane id="E77_" index="0" speed="13.89" width="0.50" length="920.0" shape="-32.83,65.57 32.11,60.58"/>
	</edge>

	<edge id="E78" from="0" to="78" priority="-1">
		<lane id="E78_" index="0" speed="13.89" width="0.50" length="1160.0" shape="-32.83,65.57 32.11,60.58"/>
	</edge>

	<edge id="E79" from="0" to="79" priority="-1">
		<lane id="E79_" index="0" speed="13.89" width="0.50" length="1180.0" shape="-32.83,65.57 32.11,60.58"/>
	</edge>

	<edge id="E80" from="0" to="80" priority="-1">
		<lane id="E80_" index="0" speed="13.89" width="0.50" length="1150.0" shape="-32.83,65.57 32.11,60.58"/>
	</edge>

	<edge id="E81" from="0" to="81" priority="-1">
		<lane id="E81_" index="0" speed="13.89" width="0.50" length="630.0" shape="-32.83,65.57 32.11,60.58"/>
	</edge>

	<edge id="E82" from="0" to="82" priority="-1">
		<lane id="E82_" index="0" speed="13.89" width="0.50" length="630.0" shape="-32.83,65.57 32.11,60.58"/>
	</edge>

	<edge id="E83" from="0" to="83" priority="-1">
		<lane id="E83_" index="0" speed="13.89" width="0.50" length="540.0" shape="-32.83,65.57 32.11,60.58"/>
	</edge>

	<edge id="E84" from="0" to="84" priority="-1">
		<lane id="E84_" index="0" speed="13.89" width="0.50" length="600.0" shape="-32.83,65.57 32.11,60.58"/>
	</edge>

	<edge id="E85" from="0" to="85" priority="-1">
		<lane id="E85_" index="0" speed="13.89" width="0.50" length="650.0" shape="-32.83,65.57 32.11,60.58"/>
	</edge>

	<edge id="E86" from="0" to="86" priority="-1">
		<lane id="E86_" index="0" speed="13.89" width="0.50" length="640.0" shape="-32.83,65.57 32.11,60.58"/>
	</edge>

	<edge id="E87" from="0" to="87" priority="-1">
		<lane id="E87_" index="0" speed="13.89" width="0.50" length="560.0" shape="-32.83,65.57 32.11,60.58"/>
	</edge>

	<edge id="E88" from="0" to="88" priority="-1">
		<lane id="E88_" index="0" speed="13.89" width="0.50" length="730.0" shape="-32.83,65.57 32.11,60.58"/>
	</edge>

	<edge id="E89" from="0" to="89" priority="-1">
		<lane id="E89_" index="0" speed="13.89" width="0.50" length="600.0" shape="-32.83,65.57 32.11,60.58"/>
	</edge>

	<edge id="E90" from="0" to="90" priority="-1">
		<lane id="E90_" index="0" speed="13.89" width="0.50" length="580.0" shape="-32.83,65.57 32.11,60.58"/>
	</edge>

	<edge id="E91" from="0" to="91" priority="-1">
		<lane id="E91_" index="0" speed="13.89" width="0.50" length="710.0" shape="-32.83,65.57 32.11,60.58"/>
	</edge>

	<edge id="E92" from="0" to="92" priority="-1">
		<lane id="E92_" index="0" speed="13.89" width="0.50" length="600.0" shape="-32.83,65.57 32.11,60.58"/>
	</edge>

	<edge id="E93" from="0" to="93" priority="-1">
		<lane id="E93_" index="0" speed="13.89" width="0.50" length="720.0" shape="-32.83,65.57 32.11,60.58"/>
	</edge>

	<edge id="E94" from="0" to="94" priority="-1">
		<lane id="E94_" index="0" speed="13.89" width="0.50" length="690.0" shape="-32.83,65.57 32.11,60.58"/>
	</edge>

	<edge id="E95" from="0" to="95" priority="-1">
		<lane id="E95_" index="0" speed="13.89" width="0.50" length="710.0" shape="-32.83,65.57 32.11,60.58"/>
	</edge>

	<edge id="E96" from="0" to="96" priority="-1">
		<lane id="E96_" index="0" speed="13.89" width="0.50" length="690.0" shape="-32.83,65.57 32.11,60.58"/>
	</edge>

	<edge id="E97" from="0" to="97" priority="-1">
		<lane id="E97_" index="0" speed="13.89" width="0.50" length="630.0" shape="-32.83,65.57 32.11,60.58"/>
	</edge>

	<edge id="E98" from="0" to="98" priority="-1">
		<lane id="E98_" index="0" speed="13.89" width="0.50" length="780.0" shape="-32.83,65.57 32.11,60.58"/>
	</edge>

	<edge id="E99" from="0" to="99" priority="-1">
		<lane id="E99_" index="0" speed="13.89" width="0.50" length="740.0" shape="-32.83,65.57 32.11,60.58"/>
	</edge>

	<edge id="E100" from="0" to="100" priority="-1">
		<lane id="E100_" index="0" speed="13.89" width="0.50" length="790.0" shape="-32.83,65.57 32.11,60.58"/>
	</edge>

	<edge id="E101" from="0" to="101" priority="-1">
		<lane id="E101_" index="0" speed="13.89" width="0.50" length="750.0" shape="-32.83,65.57 32.11,60.58"/>
	</edge>

	<edge id="E102" from="0" to="102" priority="-1">
		<lane id="E102_" index="0" speed="13.89" width="0.50" length="720.0" shape="-32.83,65.57 32.11,60.58"/>
	</edge>

	<edge id="E103" from="0" to="103" priority="-1">
		<lane id="E103_" index="0" speed="13.89" width="0.50" length="780.0" shape="-32.83,65.57 32.11,60.58"/>
	</edge>

	<edge id="E104" from="0" to="104" priority="-1">
		<lane id="E104_" index="0" speed="13.89" width="0.50" length="810.0" shape="-32.83,65.57 32.11,60.58"/>
	</edge>

	<edge id="E105" from="0" to="105" priority="-1">
		<lane id="E105_" index="0" speed="13.89" width="0.50" length="770.0" shape="-32.83,65.57 32.11,60.58"/>
	</edge>

	<edge id="E106" from="0" to="106" priority="-1">
		<lane id="E106_" index="0" speed="13.89" width="0.50" length="800.0" shape="-32.83,65.57 32.11,60.58"/>
	</edge>

	<edge id="E107" from="0" to="107" priority="-1">
		<lane id="E107_" index="0" speed="13.89" width="0.50" length="840.0" shape="-32.83,65.57 32.11,60.58"/>
	</edge>

	<edge id="E108" from="0" to="108" priority="-1">
		<lane id="E108_" index="0" speed="13.89" width="0.50" length="560.0" shape="-32.83,65.57 32.11,60.58"/>
	</edge>

	<edge id="E109" from="0" to="109" priority="-1">
		<lane id="E109_" index="0" speed="13.89" width="0.50" length="600.0" shape="-32.83,65.57 32.11,60.58"/>
	</edge>

	<edge id="E110" from="0" to="110" priority="-1">
		<lane id="E110_" index="0" speed="13.89" width="0.50" length="780.0" shape="-32.83,65.57 32.11,60.58"/>
	</edge>

	<edge id="E111" from="0" to="111" priority="-1">
		<lane id="E111_" index="0" speed="13.89" width="0.50" length="680.0" shape="-32.83,65.57 32.11,60.58"/>
	</edge>

	<edge id="E112" from="0" to="112" priority="-1">
		<lane id="E112_" index="0" speed="13.89" width="0.50" length="630.0" shape="-32.83,65.57 32.11,60.58"/>
	</edge>

	<edge id="E113" from="0" to="113" priority="-1">
		<lane id="E113_" index="0" speed="13.89" width="0.50" length="550.0" shape="-32.83,65.57 32.11,60.58"/>
	</edge>

	<edge id="E114" from="0" to="114" priority="-1">
		<lane id="E114_" index="0" speed="13.89" width="0.50" length="590.0" shape="-32.83,65.57 32.11,60.58"/>
	</edge>

	<edge id="E115" from="0" to="115" priority="-1">
		<lane id="E115_" index="0" speed="13.89" width="0.50" length="700.0" shape="-32.83,65.57 32.11,60.58"/>
	</edge>

	<edge id="E116" from="0" to="116" priority="-1">
		<lane id="E116_" index="0" speed="13.89" width="0.50" length="770.0" shape="-32.83,65.57 32.11,60.58"/>
	</edge>

	<edge id="E117" from="0" to="117" priority="-1">
		<lane id="E117_" index="0" speed="13.89" width="0.50" length="610.0" shape="-32.83,65.57 32.11,60.58"/>
	</edge>

	<edge id="E118" from="0" to="118" priority="-1">
		<lane id="E118_" index="0" speed="13.89" width="0.50" length="660.0" shape="-32.83,65.57 32.11,60.58"/>
	</edge>

	<edge id="E119" from="0" to="119" priority="-1">
		<lane id="E119_" index="0" speed="13.89" width="0.50" length="550.0" shape="-32.83,65.57 32.11,60.58"/>
	</edge>

	<edge id="E120" from="0" to="120" priority="-1">
		<lane id="E120_" index="0" speed="13.89" width="0.50" length="720.0" shape="-32.83,65.57 32.11,60.58"/>
	</edge>

	<edge id="E121" from="1" to="0" priority="-1">
		<lane id="E121_" index="0" speed="13.89" width="0.50" length="290.0" shape="-32.83,65.57 32.11,60.58"/>
	</edge>

	<edge id="E123" from="1" to="2" priority="-1">
		<lane id="E123_" index="0" speed="13.89" width="0.50" length="200.0" shape="-32.83,65.57 32.11,60.58"/>
	</edge>

	<edge id="E124" from="1" to="3" priority="-1">
		<lane id="E124_" index="0" speed="13.89" width="0.50" length="160.0" shape="-32.83,65.57 32.11,60.58"/>
	</edge>

	<edge id="E125" from="1" to="4" priority="-1">
		<lane id="E125_" index="0" speed="13.89" width="0.50" length="230.0" shape="-32.83,65.57 32.11,60.58"/>
	</edge>

	<edge id="E126" from="1" to="5" priority="-1">
		<lane id="E126_" index="0" speed="13.89" width="0.50" length="170.0" shape="-32.83,65.57 32.11,60.58"/>
	</edge>

	<edge id="E127" from="1" to="6" priority="-1">
		<lane id="E127_" index="0" speed="13.89" width="0.50" length="280.0" shape="-32.83,65.57 32.11,60.58"/>
	</edge>

	<edge id="E128" from="1" to="7" priority="-1">
		<lane id="E128_" index="0" speed="13.89" width="0.50" length="220.0" shape="-32.83,65.57 32.11,60.58"/>
	</edge>

	<edge id="E129" from="1" to="8" priority="-1">
		<lane id="E129_" index="0" speed="13.89" width="0.50" length="140.0" shape="-32.83,65.57 32.11,60.58"/>
	</edge>

	<edge id="E130" from="1" to="9" priority="-1">
		<lane id="E130_" index="0" speed="13.89" width="0.50" length="260.0" shape="-32.83,65.57 32.11,60.58"/>
	</edge>

	<edge id="E131" from="1" to="10" priority="-1">
		<lane id="E131_" index="0" speed="13.89" width="0.50" length="150.0" shape="-32.83,65.57 32.11,60.58"/>
	</edge>

	<edge id="E132" from="1" to="11" priority="-1">
		<lane id="E132_" index="0" speed="13.89" width="0.50" length="140.0" shape="-32.83,65.57 32.11,60.58"/>
	</edge>

	<edge id="E133" from="1" to="12" priority="-1">
		<lane id="E133_" index="0" speed="13.89" width="0.50" length="130.0" shape="-32.83,65.57 32.11,60.58"/>
	</edge>

	<edge id="E134" from="1" to="13" priority="-1">
		<lane id="E134_" index="0" speed="13.89" width="0.50" length="160.0" shape="-32.83,65.57 32.11,60.58"/>
	</edge>

	<edge id="E135" from="1" to="14" priority="-1">
		<lane id="E135_" index="0" speed="13.89" width="0.50" length="150.0" shape="-32.83,65.57 32.11,60.58"/>
	</edge>

	<edge id="E136" from="1" to="15" priority="-1">
		<lane id="E136_" index="0" speed="13.89" width="0.50" length="90.0" shape="-32.83,65.57 32.11,60.58"/>
	</edge>

	<edge id="E137" from="1" to="16" priority="-1">
		<lane id="E137_" index="0" speed="13.89" width="0.50" length="170.0" shape="-32.83,65.57 32.11,60.58"/>
	</edge>

	<edge id="E138" from="1" to="17" priority="-1">
		<lane id="E138_" index="0" speed="13.89" width="0.50" length="140.0" shape="-32.83,65.57 32.11,60.58"/>
	</edge>

	<edge id="E139" from="1" to="18" priority="-1">
		<lane id="E139_" index="0" speed="13.89" width="0.50" length="480.0" shape="-32.83,65.57 32.11,60.58"/>
	</edge>

	<edge id="E140" from="1" to="19" priority="-1">
		<lane id="E140_" index="0" speed="13.89" width="0.50" length="130.0" shape="-32.83,65.57 32.11,60.58"/>
	</edge>

	<edge id="E141" from="1" to="20" priority="-1">
		<lane id="E141_" index="0" speed="13.89" width="0.50" length="300.0" shape="-32.83,65.57 32.11,60.58"/>
	</edge>

	<edge id="E142" from="1" to="21" priority="-1">
		<lane id="E142_" index="0" speed="13.89" width="0.50" length="300.0" shape="-32.83,65.57 32.11,60.58"/>
	</edge>

	<edge id="E143" from="1" to="22" priority="-1">
		<lane id="E143_" index="0" speed="13.89" width="0.50" length="150.0" shape="-32.83,65.57 32.11,60.58"/>
	</edge>

	<edge id="E144" from="1" to="23" priority="-1">
		<lane id="E144_" index="0" speed="13.89" width="0.50" length="200.0" shape="-32.83,65.57 32.11,60.58"/>
	</edge>

	<edge id="E145" from="1" to="24" priority="-1">
		<lane id="E145_" index="0" speed="13.89" width="0.50" length="190.0" shape="-32.83,65.57 32.11,60.58"/>
	</edge>

	<edge id="E146" from="1" to="25" priority="-1">
		<lane id="E146_" index="0" speed="13.89" width="0.50" length="130.0" shape="-32.83,65.57 32.11,60.58"/>
	</edge>

	<edge id="E147" from="1" to="26" priority="-1">
		<lane id="E147_" index="0" speed="13.89" width="0.50" length="200.0" shape="-32.83,65.57 32.11,60.58"/>
	</edge>

	<edge id="E148" from="1" to="27" priority="-1">
		<lane id="E148_" index="0" speed="13.89" width="0.50" length="210.0" shape="-32.83,65.57 32.11,60.58"/>
	</edge>

	<edge id="E149" from="1" to="28" priority="-1">
		<lane id="E149_" index="0" speed="13.89" width="0.50" length="260.0" shape="-32.83,65.57 32.11,60.58"/>
	</edge>

	<edge id="E150" from="1" to="29" priority="-1">
		<lane id="E150_" index="0" speed="13.89" width="0.50" length="300.0" shape="-32.83,65.57 32.11,60.58"/>
	</edge>

	<edge id="E151" from="1" to="30" priority="-1">
		<lane id="E151_" index="0" speed="13.89" width="0.50" length="160.0" shape="-32.83,65.57 32.11,60.58"/>
	</edge>

	<edge id="E152" from="1" to="31" priority="-1">
		<lane id="E152_" index="0" speed="13.89" width="0.50" length="190.0" shape="-32.83,65.57 32.11,60.58"/>
	</edge>

	<edge id="E153" from="1" to="32" priority="-1">
		<lane id="E153_" index="0" speed="13.89" width="0.50" length="300.0" shape="-32.83,65.57 32.11,60.58"/>
	</edge>

	<edge id="E154" from="1" to="33" priority="-1">
		<lane id="E154_" index="0" speed="13.89" width="0.50" length="180.0" shape="-32.83,65.57 32.11,60.58"/>
	</edge>

	<edge id="E155" from="1" to="34" priority="-1">
		<lane id="E155_" index="0" speed="13.89" width="0.50" length="270.0" shape="-32.83,65.57 32.11,60.58"/>
	</edge>

	<edge id="E156" from="1" to="35" priority="-1">
		<lane id="E156_" index="0" speed="13.89" width="0.50" length="280.0" shape="-32.83,65.57 32.11,60.58"/>
	</edge>

	<edge id="E157" from="1" to="36" priority="-1">
		<lane id="E157_" index="0" speed="13.89" width="0.50" length="270.0" shape="-32.83,65.57 32.11,60.58"/>
	</edge>

	<edge id="E158" from="1" to="37" priority="-1">
		<lane id="E158_" index="0" speed="13.89" width="0.50" length="470.0" shape="-32.83,65.57 32.11,60.58"/>
	</edge>

	<edge id="E159" from="1" to="38" priority="-1">
		<lane id="E159_" index="0" speed="13.89" width="0.50" length="540.0" shape="-32.83,65.57 32.11,60.58"/>
	</edge>

	<edge id="E160" from="1" to="39" priority="-1">
		<lane id="E160_" index="0" speed="13.89" width="0.50" length="580.0" shape="-32.83,65.57 32.11,60.58"/>
	</edge>

	<edge id="E161" from="1" to="40" priority="-1">
		<lane id="E161_" index="0" speed="13.89" width="0.50" length="620.0" shape="-32.83,65.57 32.11,60.58"/>
	</edge>

	<edge id="E162" from="1" to="41" priority="-1">
		<lane id="E162_" index="0" speed="13.89" width="0.50" length="470.0" shape="-32.83,65.57 32.11,60.58"/>
	</edge>

	<edge id="E163" from="1" to="42" priority="-1">
		<lane id="E163_" index="0" speed="13.89" width="0.50" length="560.0" shape="-32.83,65.57 32.11,60.58"/>
	</edge>

	<edge id="E164" from="1" to="43" priority="-1">
		<lane id="E164_" index="0" speed="13.89" width="0.50" length="600.0" shape="-32.83,65.57 32.11,60.58"/>
	</edge>

	<edge id="E165" from="1" to="44" priority="-1">
		<lane id="E165_" index="0" speed="13.89" width="0.50" length="560.0" shape="-32.83,65.57 32.11,60.58"/>
	</edge>

	<edge id="E166" from="1" to="45" priority="-1">
		<lane id="E166_" index="0" speed="13.89" width="0.50" length="670.0" shape="-32.83,65.57 32.11,60.58"/>
	</edge>

	<edge id="E167" from="1" to="46" priority="-1">
		<lane id="E167_" index="0" speed="13.89" width="0.50" length="550.0" shape="-32.83,65.57 32.11,60.58"/>
	</edge>

	<edge id="E168" from="1" to="47" priority="-1">
		<lane id="E168_" index="0" speed="13.89" width="0.50" length="610.0" shape="-32.83,65.57 32.11,60.58"/>
	</edge>

	<edge id="E169" from="1" to="48" priority="-1">
		<lane id="E169_" index="0" speed="13.89" width="0.50" length="590.0" shape="-32.83,65.57 32.11,60.58"/>
	</edge>

	<edge id="E170" from="1" to="49" priority="-1">
		<lane id="E170_" index="0" speed="13.89" width="0.50" length="610.0" shape="-32.83,65.57 32.11,60.58"/>
	</edge>

	<edge id="E171" from="1" to="50" priority="-1">
		<lane id="E171_" index="0" speed="13.89" width="0.50" length="660.0" shape="-32.83,65.57 32.11,60.58"/>
	</edge>

	<edge id="E172" from="1" to="51" priority="-1">
		<lane id="E172_" index="0" speed="13.89" width="0.50" length="530.0" shape="-32.83,65.57 32.11,60.58"/>
	</edge>

	<edge id="E173" from="1" to="52" priority="-1">
		<lane id="E173_" index="0" speed="13.89" width="0.50" length="910.0" shape="-32.83,65.57 32.11,60.58"/>
	</edge>

	<edge id="E174" from="1" to="53" priority="-1">
		<lane id="E174_" index="0" speed="13.89" width="0.50" length="960.0" shape="-32.83,65.57 32.11,60.58"/>
	</edge>

	<edge id="E175" from="1" to="54" priority="-1">
		<lane id="E175_" index="0" speed="13.89" width="0.50" length="930.0" shape="-32.83,65.57 32.11,60.58"/>
	</edge>

	<edge id="E176" from="1" to="55" priority="-1">
		<lane id="E176_" index="0" speed="13.89" width="0.50" length="950.0" shape="-32.83,65.57 32.11,60.58"/>
	</edge>

	<edge id="E177" from="1" to="56" priority="-1">