<?xml version="1.0" encoding="UTF-8"?>

<!-- generated on 2025-02-05 11:24:04 by Eclipse SUMO GUI Version 1.15.0
-->

<configuration xmlns:xsi="http://www.w3.org/2001/XMLSchema-instance" xsi:noNamespaceSchemaLocation="http://sumo.dlr.de/xsd/sumoConfiguration.xsd">

    <input>
        <net-file value="teste.net.xml"/>
        <route-files value="7points.rou.xml"/>
    </input>

</configuration>