<?xml version="1.0" encoding="UTF-8"?>
<routes>
    <route id="r_0" edges="E23 E32 E41 E2 -E23"/>
    <route id="r_1" edges="E23 -E1 E39 E37 -E23"/>
    <route id="r_2" edges="E23 E0 E20 E5 -E23"/>

    <vType id="car" accel="0.8" decel="4.5" sigma="0.5" length="5" maxSpeed="70"/>
        <vehicle id="v_0" depart="0.00" route="r_1"/>
        <vehicle id="v_1" depart="0.00" color="green" route="r_0"/>
        <vehicle id="v_2" depart="0.00" color="cyan" route="r_2"/>
</routes>
