<?xml version="1.0" encoding="UTF-8"?>

<!-- generated on 2025-02-06 09:05:26 by Eclipse SUMO netedit Version 1.15.0
<configuration xmlns:xsi="http://www.w3.org/2001/XMLSchema-instance" xsi:noNamespaceSchemaLocation="http://sumo.dlr.de/xsd/netconvertConfiguration.xsd">

    <input>
        <sumo-net-file value="/home/etudiant/bj220781/TP/s6/s6.01_developpement_avance/SUMO/teste.net.xml"/>
    </input>

    <output>
        <output-file value="/home/etudiant/bj220781/TP/s6/s6.01_developpement_avance/SUMO/teste.net.xml"/>
    </output>

    <processing>
        <geometry.min-radius.fix.railways value="false"/>
        <geometry.max-grade.fix value="false"/>
        <offset.disable-normalization value="true"/>
        <lefthand value="0"/>
    </processing>

    <junctions>
        <no-turnarounds value="true"/>
        <junctions.corner-detail value="5"/>
        <junctions.limit-turn-speed value="5.50"/>
        <rectangular-lane-cut value="0"/>
    </junctions>

    <pedestrian>
        <walkingareas value="0"/>
    </pedestrian>

    <netedit>
        <SUMOConfig-output value="/home/etudiant/bj220781/TP/s6/s6.01_developpement_avance/SUMO/7P.sumocfg"/>
        <TLSPrograms-output value="/home/etudiant/bj220781/TP/s6/s6.01_developpement_avance/SUMO/7points.xml"/>
    </netedit>

</configuration>
-->

<net version="1.9" junctionCornerDetail="5" limitTurnSpeed="5.50" xmlns:xsi="http://www.w3.org/2001/XMLSchema-instance" xsi:noNamespaceSchemaLocation="http://sumo.dlr.de/xsd/net_file.xsd">

    <location netOffset="0.00,0.00" convBoundary="-60.92,-34.20,175.48,180.45" origBoundary="-10000000000.00,-10000000000.00,10000000000.00,10000000000.00" projParameter="!"/>

    <edge id=":J1_0" function="internal">
        <lane id=":J1_0_0" index="0" speed="13.89" length="24.35" shape="159.38,145.10 155.94,144.46 150.88,145.06 144.21,146.89 135.92,149.95"/>
    </edge>
    <edge id=":J1_1" function="internal">
        <lane id=":J1_1_0" index="0" speed="13.89" length="25.77" shape="159.38,145.10 154.19,143.77 146.79,142.94 139.30,142.51 133.83,142.39"/>
    </edge>
    <edge id=":J1_2" function="internal">
        <lane id=":J1_2_0" index="0" speed="13.89" length="25.56" shape="159.38,145.10 136.12,134.51"/>
    </edge>
    <edge id=":J1_3" function="internal">
        <lane id=":J1_3_0" index="0" speed="13.89" length="3.80" shape="159.38,145.10 156.28,142.90"/>
    </edge>
    <edge id=":J1_4" function="internal">
        <lane id=":J1_4_0" index="0" speed="13.89" length="3.04" shape="159.38,145.10 157.00,143.22"/>
    </edge>
    <edge id=":J1_5" function="internal">
        <lane id=":J1_5_0" index="0" speed="11.13" length="2.36" shape="159.38,145.10 157.65,143.50"/>
    </edge>
    <edge id=":J1_42" function="internal">
        <lane id=":J1_42_0" index="0" speed="13.89" length="21.13" shape="156.28,142.90 155.10,142.07 149.84,137.21 144.83,132.04 141.27,128.08"/>
    </edge>
    <edge id=":J1_43" function="internal">
        <lane id=":J1_43_0" index="0" speed="13.89" length="21.28" shape="157.00,143.22 156.22,142.61 153.33,138.27 150.71,132.09 148.36,124.06"/>
    </edge>
    <edge id=":J1_44" function="internal">
        <lane id=":J1_44_0" index="0" speed="11.13" length="21.08" shape="157.65,143.50 156.55,142.47 155.11,137.95 155.06,131.54 156.41,123.23"/>
    </edge>
    <edge id=":J1_6" function="internal">
        <lane id=":J1_6_0" index="0" speed="10.12" length="19.23" shape="159.53,123.92 158.29,131.07 158.08,136.51 158.90,140.22 160.76,142.22"/>
    </edge>
    <edge id=":J1_7" function="internal">
        <lane id=":J1_7_0" index="0" speed="13.89" length="16.59" shape="159.53,123.92 156.56,132.33 152.21,138.64"/>
    </edge>
    <edge id=":J1_8" function="internal">
        <lane id=":J1_8_0" index="0" speed="13.35" length="17.52" shape="159.53,123.92 156.40,132.02 151.07,137.80 150.18,138.20"/>
    </edge>
    <edge id=":J1_9" function="internal">
        <lane id=":J1_9_0" index="0" speed="10.87" length="15.24" shape="159.53,123.92 156.41,132.27 151.71,136.49"/>
    </edge>
    <edge id=":J1_10" function="internal">
        <lane id=":J1_10_0" index="0" speed="8.52" length="6.80" shape="159.53,123.92 156.68,129.97 156.59,130.03"/>
    </edge>
    <edge id=":J1_11" function="internal">
        <lane id=":J1_11_0" index="0" speed="6.26" length="3.72" shape="159.53,123.92 157.59,127.09"/>
    </edge>
    <edge id=":J1_45" function="internal">
        <lane id=":J1_45_0" index="0" speed="13.89" length="20.02" shape="152.21,138.64 151.64,139.47 144.76,145.34 135.92,149.95"/>
    </edge>
    <edge id=":J1_46" function="internal">
        <lane id=":J1_46_0" index="0" speed="13.35" length="17.08" shape="150.18,138.20 143.55,141.25 133.83,142.39"/>
    </edge>
    <edge id=":J1_47" function="internal">
        <lane id=":J1_47_0" index="0" speed="10.87" length="16.10" shape="151.71,136.49 151.56,136.63 144.84,137.27 136.12,134.51"/>
    </edge>
    <edge id=":J1_48" function="internal">
        <lane id=":J1_48_0" index="0" speed="8.52" length="17.53" shape="156.59,130.03 152.08,132.79 146.64,132.21 141.27,128.08"/>
    </edge>
    <edge id=":J1_49" function="internal">
        <lane id=":J1_49_0" index="0" speed="6.26" length="11.56" shape="157.59,127.09 157.43,127.34 154.01,128.52 150.55,127.43 148.36,124.06"/>
    </edge>
    <edge id=":J1_12" function="internal">
        <lane id=":J1_12_0" index="0" speed="5.61" length="11.91" shape="151.47,123.29 152.75,127.23 154.01,128.54 155.22,127.20 156.41,123.23"/>
    </edge>
    <edge id=":J1_13" function="internal">
        <lane id=":J1_13_0" index="0" speed="13.89" length="21.53" shape="151.47,123.29 153.58,130.63 155.83,136.24 158.22,140.10 160.76,142.22"/>
    </edge>
    <edge id=":J1_14" function="internal">
        <lane id=":J1_14_0" index="0" speed="12.86" length="34.17" shape="151.47,123.29 152.22,131.90 149.88,139.21 144.44,145.23 135.92,149.95"/>
    </edge>
    <edge id=":J1_15" function="internal">
        <lane id=":J1_15_0" index="0" speed="10.83" length="14.72" shape="151.47,123.29 152.21,132.19 149.70,137.41"/>
    </edge>
    <edge id=":J1_16" function="internal">
        <lane id=":J1_16_0" index="0" speed="8.56" length="6.68" shape="151.47,123.29 151.50,129.97"/>
    </edge>
    <edge id=":J1_17" function="internal">
        <lane id=":J1_17_0" index="0" speed="6.28" length="3.68" shape="151.47,123.29 151.11,126.95"/>
    </edge>
    <edge id=":J1_50" function="internal">
        <lane id=":J1_50_0" index="0" speed="10.83" length="17.18" shape="149.70,137.41 149.37,138.11 143.17,141.39 133.83,142.39"/>
    </edge>
    <edge id=":J1_51" function="internal">
        <lane id=":J1_51_0" index="0" speed="8.56" length="18.04" shape="151.50,129.97 148.36,134.36 142.94,136.02 136.12,134.51"/>
    </edge>
    <edge id=":J1_52" function="internal">
        <lane id=":J1_52_0" index="0" speed="6.28" length="11.73" shape="151.11,126.95 151.08,127.27 148.45,129.75 144.78,130.20 141.27,128.08"/>
    </edge>
    <edge id=":J1_18" function="internal">
        <lane id=":J1_18_0" index="0" speed="5.65" length="12.13" shape="143.71,126.01 146.72,129.10 148.50,129.81 149.05,128.13 148.36,124.06"/>
    </edge>
    <edge id=":J1_19" function="internal">
        <lane id=":J1_19_0" index="0" speed="7.61" length="19.07" shape="143.71,126.01 148.10,130.08 151.68,130.98 154.45,128.69 156.41,123.23"/>
    </edge>
    <edge id=":J1_20" function="internal">
        <lane id=":J1_20_0" index="0" speed="13.89" length="23.60" shape="143.71,126.01 147.10,129.85 151.76,134.74 156.65,139.31 160.76,142.22"/>
    </edge>
    <edge id=":J1_21" function="internal">
        <lane id=":J1_21_0" index="0" speed="10.49" length="31.23" shape="143.71,126.01 148.13,133.52 148.07,140.01 143.88,145.50 135.92,149.95"/>
    </edge>
    <edge id=":J1_22" function="internal">
        <lane id=":J1_22_0" index="0" speed="8.53" length="25.01" shape="143.71,126.01 146.56,131.99 145.33,137.25 140.82,140.98 133.83,142.39"/>
    </edge>
    <edge id=":J1_23" function="internal">
        <lane id=":J1_23_0" index="0" speed="6.30" length="15.60" shape="143.71,126.01 145.06,129.74 143.62,133.04 140.32,134.95 136.12,134.51"/>
    </edge>
    <edge id=":J1_24" function="internal">
        <lane id=":J1_24_0" index="0" speed="5.74" length="12.62" shape="137.43,131.59 141.79,133.21 143.88,133.17 143.70,131.45 141.27,128.08"/>
    </edge>
    <edge id=":J1_25" function="internal">
        <lane id=":J1_25_0" index="0" speed="7.68" length="19.57" shape="137.43,131.59 143.51,133.53 147.36,132.93 148.98,129.77 148.36,124.06"/>
    </edge>
    <edge id=":J1_26" function="internal">
        <lane id=":J1_26_0" index="0" speed="9.74" length="24.92" shape="137.43,131.59 144.47,133.68 149.97,132.99 153.95,129.51 156.41,123.23"/>
    </edge>
    <edge id=":J1_27" function="internal">
        <lane id=":J1_27_0" index="0" speed="13.89" length="25.64" shape="137.43,131.59 160.76,142.22"/>
    </edge>
    <edge id=":J1_28" function="internal">
        <lane id=":J1_28_0" index="0" speed="8.29" length="2.89" shape="137.43,131.59 139.68,133.41"/>
    </edge>
    <edge id=":J1_29" function="internal">
        <lane id=":J1_29_0" index="0" speed="6.27" length="2.14" shape="137.43,131.59 138.94,133.11"/>
    </edge>
    <edge id=":J1_53" function="internal">
        <lane id=":J1_53_0" index="0" speed="8.29" length="21.38" shape="139.68,133.41 142.47,135.68 143.74,140.90 141.47,146.05 135.92,149.95"/>
    </edge>
    <edge id=":J1_54" function="internal">
        <lane id=":J1_54_0" index="0" speed="6.27" length="13.49" shape="138.94,133.11 140.19,134.37 140.17,137.96 137.88,141.07 133.83,142.39"/>
    </edge>
    <edge id=":J1_30" function="internal">
        <lane id=":J1_30_0" index="0" speed="5.82" length="13.20" shape="133.84,139.19 138.78,138.91 140.81,138.03 139.93,136.57 136.12,134.51"/>
    </edge>
    <edge id=":J1_31" function="internal">
        <lane id=":J1_31_0" index="0" speed="7.71" length="20.15" shape="133.84,139.19 140.63,138.51 144.13,136.43 144.35,132.95 141.27,128.08"/>
    </edge>
    <edge id=":J1_32" function="internal">
        <lane id=":J1_32_0" index="0" speed="9.72" length="25.47" shape="133.84,139.19 141.60,138.26 146.61,135.43 148.86,130.70 148.36,124.06"/>
    </edge>
    <edge id=":J1_33" function="internal">
        <lane id=":J1_33_0" index="0" speed="12.50" length="30.21" shape="133.84,139.19 142.39,138.21 149.00,135.22 153.67,130.23 156.41,123.23"/>
    </edge>
    <edge id=":J1_34" function="internal">
        <lane id=":J1_34_0" index="0" speed="13.89" length="27.17" shape="133.84,139.19 139.52,139.36 147.48,139.90 155.35,140.84 160.76,142.22"/>
    </edge>
    <edge id=":J1_35" function="internal">
        <lane id=":J1_35_0" index="0" speed="6.14" length="1.71" shape="133.84,139.19 135.44,139.78"/>
    </edge>
    <edge id=":J1_55" function="internal">
        <lane id=":J1_55_0" index="0" speed="6.14" length="13.39" shape="135.44,139.78 137.53,140.55 139.28,143.72 138.83,147.31 135.92,149.95"/>
    </edge>
    <edge id=":J1_36" function="internal">
        <lane id=":J1_36_0" index="0" speed="5.76" length="13.05" shape="134.72,146.98 138.89,144.98 140.14,143.55 138.45,142.69 133.83,142.39"/>
    </edge>
    <edge id=":J1_37" function="internal">
        <lane id=":J1_37_0" index="0" speed="7.56" length="19.91" shape="134.72,146.98 140.57,143.87 142.76,140.75 141.27,137.63 136.12,134.51"/>
    </edge>
    <edge id=":J1_38" function="internal">
        <lane id=":J1_38_0" index="0" speed="9.42" length="24.92" shape="134.72,146.98 141.43,143.25 144.76,138.86 144.70,133.80 141.27,128.08"/>
    </edge>
    <edge id=":J1_39" function="internal">
        <lane id=":J1_39_0" index="0" speed="11.98" length="29.52" shape="134.72,146.98 142.16,142.88 146.91,137.70 148.98,131.42 148.36,124.06"/>
    </edge>
    <edge id=":J1_40" function="internal">
        <lane id=":J1_40_0" index="0" speed="13.89" length="33.50" shape="134.72,146.98 142.85,142.76 149.18,137.39 153.69,130.88 156.41,123.23"/>
    </edge>
    <edge id=":J1_41" function="internal">
        <lane id=":J1_41_0" index="0" speed="13.89" length="4.41" shape="134.72,146.98 138.86,145.47"/>
    </edge>
    <edge id=":J1_56" function="internal">
        <lane id=":J1_56_0" index="0" speed="13.89" length="22.56" shape="138.86,145.47 143.66,143.73 150.98,141.85 156.68,141.34 160.76,142.22"/>
    </edge>
    <edge id=":J19_0" function="internal">
        <lane id=":J19_0_0" index="0" speed="13.89" length="36.58" shape="-23.98,149.54 -32.85,144.88 -39.68,138.97 -44.49,131.79 -47.26,123.35"/>
    </edge>
    <edge id=":J19_1" function="internal">
        <lane id=":J19_1_0" index="0" speed="12.76" length="12.49" shape="-23.98,149.54 -32.53,144.76 -34.32,142.73"/>
    </edge>
    <edge id=":J19_2" function="internal">
        <lane id=":J19_2_0" index="0" speed="10.47" length="9.76" shape="-23.98,149.54 -31.92,145.01 -32.29,144.50"/>
    </edge>
    <edge id=":J19_3" function="internal">
        <lane id=":J19_3_0" index="0" speed="8.29" length="5.31" shape="-23.98,149.54 -28.33,146.48"/>
    </edge>
    <edge id=":J19_4" function="internal">
        <lane id=":J19_4_0" index="0" speed="6.14" length="2.81" shape="-23.98,149.54 -26.06,147.64"/>
    </edge>
    <edge id=":J19_30" function="internal">
        <lane id=":J19_30_0" index="0" speed="12.76" length="21.88" shape="-34.32,142.73 -37.90,138.67 -40.08,131.28 -39.08,122.58"/>
    </edge>
    <edge id=":J19_31" function="internal">
        <lane id=":J19_31_0" index="0" speed="10.47" length="21.64" shape="-32.29,144.50 -36.00,139.43 -35.92,132.85 -31.33,125.37"/>
    </edge>
    <edge id=":J19_32" function="internal">
        <lane id=":J19_32_0" index="0" speed="8.29" length="18.98" shape="-28.33,146.48 -29.55,145.62 -31.85,140.46 -30.61,135.25 -25.57,131.17"/>
    </edge>
    <edge id=":J19_33" function="internal">
        <lane id=":J19_33_0" index="0" speed="6.14" length="12.28" shape="-26.06,147.64 -26.89,146.89 -27.32,143.30 -25.56,140.14 -21.87,138.79"/>
    </edge>
    <edge id=":J19_5" function="internal">
        <lane id=":J19_5_0" index="0" speed="5.77" length="13.11" shape="-21.88,141.99 -26.52,142.27 -28.22,143.12 -26.97,144.56 -22.78,146.57"/>
    </edge>
    <edge id=":J19_6" function="internal">
        <lane id=":J19_6_0" index="0" speed="13.22" length="34.55" shape="-21.88,141.99 -31.63,140.81 -39.11,137.30 -44.32,131.48 -47.26,123.35"/>
    </edge>
    <edge id=":J19_7" function="internal">
        <lane id=":J19_7_0" index="0" speed="10.76" length="31.94" shape="-21.88,141.99 -31.18,140.90 -37.33,137.48 -40.04,131.47 -39.08,122.58"/>
    </edge>
    <edge id=":J19_8" function="internal">
        <lane id=":J19_8_0" index="0" speed="8.51" length="25.05" shape="-21.88,141.99 -28.82,140.51 -33.22,136.67 -34.31,131.33 -31.33,125.37"/>
    </edge>
    <edge id=":J19_9" function="internal">
        <lane id=":J19_9_0" index="0" speed="6.28" length="15.70" shape="-21.88,141.99 -25.95,140.66 -28.28,137.54 -28.34,133.94 -25.57,131.17"/>
    </edge>
    <edge id=":J19_10" function="internal">
        <lane id=":J19_10_0" index="0" speed="5.84" length="13.28" shape="-24.28,134.10 -28.08,136.14 -28.94,137.60 -26.87,138.49 -21.87,138.79"/>
    </edge>
    <edge id=":J19_11" function="internal">
        <lane id=":J19_11_0" index="0" speed="7.57" length="19.95" shape="-24.28,134.10 -29.42,137.19 -30.89,140.31 -28.67,143.43 -22.78,146.57"/>
    </edge>
    <edge id=":J19_12" function="internal">
        <lane id=":J19_12_0" index="0" speed="10.76" length="31.05" shape="-24.28,134.10 -32.93,136.77 -39.60,136.05 -44.35,131.67 -47.26,123.35"/>
    </edge>
    <edge id=":J19_13" function="internal">
        <lane id=":J19_13_0" index="0" speed="8.48" length="24.47" shape="-24.28,134.10 -31.00,135.49 -36.30,133.69 -39.28,129.21 -39.08,122.58"/>
    </edge>
    <edge id=":J19_14" function="internal">
        <lane id=":J19_14_0" index="0" speed="6.25" length="15.39" shape="-24.28,134.10 -28.36,134.46 -31.49,132.44 -32.77,129.07 -31.33,125.37"/>
    </edge>
    <edge id=":J19_15" function="internal">
        <lane id=":J19_15_0" index="0" speed="5.71" length="12.55" shape="-28.93,127.48 -31.50,130.88 -31.80,132.63 -29.82,132.73 -25.57,131.17"/>
    </edge>
    <edge id=":J19_16" function="internal">
        <lane id=":J19_16_0" index="0" speed="7.72" length="20.33" shape="-28.93,127.48 -32.20,132.41 -32.11,135.94 -28.66,138.07 -21.87,138.79"/>
    </edge>
    <edge id=":J19_17" function="internal">
        <lane id=":J19_17_0" index="0" speed="9.41" length="25.15" shape="-28.93,127.48 -32.57,133.26 -32.75,138.37 -29.49,142.80 -22.78,146.57"/>
    </edge>
    <edge id=":J19_18" function="internal">
        <lane id=":J19_18_0" index="0" speed="8.53" length="24.44" shape="-28.93,127.48 -34.42,131.59 -39.93,132.20 -44.53,129.42 -47.26,123.35"/>
    </edge>
    <edge id=":J19_19" function="internal">
        <lane id=":J19_19_0" index="0" speed="6.27" length="15.44" shape="-28.93,127.48 -32.49,129.55 -36.18,129.06 -38.78,126.56 -39.08,122.58"/>
    </edge>
    <edge id=":J19_20" function="internal">
        <lane id=":J19_20_0" index="0" speed="5.68" length="12.33" shape="-36.00,123.44 -36.81,127.53 -36.30,129.22 -34.47,128.50 -31.33,125.37"/>
    </edge>
    <edge id=":J19_21" function="internal">
        <lane id=":J19_21_0" index="0" speed="7.62" length="19.46" shape="-36.00,123.44 -36.81,129.20 -35.34,132.41 -31.59,133.06 -25.57,131.17"/>
    </edge>
    <edge id=":J19_22" function="internal">
        <lane id=":J19_22_0" index="0" speed="9.67" length="25.54" shape="-36.00,123.44 -36.71,130.14 -34.59,134.93 -29.64,137.81 -21.87,138.79"/>
    </edge>
    <edge id=":J19_23" function="internal">
        <lane id=":J19_23_0" index="0" speed="11.88" length="29.63" shape="-36.00,123.44 -36.83,130.87 -34.90,137.20 -30.22,142.43 -22.78,146.57"/>
    </edge>
    <edge id=":J19_24" function="internal">
        <lane id=":J19_24_0" index="0" speed="6.28" length="15.41" shape="-36.00,123.44 -38.30,126.83 -41.81,127.96 -45.23,126.80 -47.26,123.35"/>
    </edge>
    <edge id=":J19_25" function="internal">
        <lane id=":J19_25_0" index="0" speed="5.65" length="12.08" shape="-44.12,122.74 -43.03,126.71 -41.83,128.01 -40.52,126.63 -39.08,122.58"/>
    </edge>
    <edge id=":J19_26" function="internal">
        <lane id=":J19_26_0" index="0" speed="7.62" length="19.23" shape="-44.12,122.74 -42.30,128.19 -39.56,130.44 -35.90,129.50 -31.33,125.37"/>
    </edge>
    <edge id=":J19_27" function="internal">
        <lane id=":J19_27_0" index="0" speed="9.63" length="24.65" shape="-44.12,122.74 -41.85,129.01 -38.00,132.51 -32.57,133.23 -25.57,131.17"/>
    </edge>
    <edge id=":J19_28" function="internal">
        <lane id=":J19_28_0" index="0" speed="12.36" length="30.09" shape="-44.12,122.74 -41.57,129.74 -37.01,134.75 -30.44,137.77 -21.87,138.79"/>
    </edge>
    <edge id=":J19_29" function="internal">
        <lane id=":J19_29_0" index="0" speed="13.89" length="33.39" shape="-44.12,122.74 -41.59,130.40 -37.19,136.92 -30.92,142.31 -22.78,146.57"/>
    </edge>
    <edge id=":J2_0" function="internal">
        <lane id=":J2_0_0" index="0" speed="5.77" length="12.56" shape="113.56,-16.30 112.16,-20.58 110.78,-22.13 109.41,-20.93 108.06,-16.99"/>
    </edge>
    <edge id=":J2_1" function="internal">
        <lane id=":J2_1_0" index="0" speed="7.94" length="20.44" shape="113.56,-16.30 111.32,-21.91 108.23,-24.20 104.28,-23.19 99.46,-18.86"/>
    </edge>
    <edge id=":J2_2" function="internal">
        <lane id=":J2_2_0" index="0" speed="9.87" length="25.31" shape="113.56,-16.30 110.89,-22.69 106.78,-26.24 101.21,-26.95 94.19,-24.83"/>
    </edge>
    <edge id=":J2_3" function="internal">
        <lane id=":J2_3_0" index="0" speed="12.48" length="29.33" shape="113.56,-16.30 110.70,-23.42 106.17,-28.51 99.98,-31.56 92.10,-32.58"/>
    </edge>
    <edge id=":J2_4" function="internal">
        <lane id=":J2_4_0" index="0" speed="6.24" length="15.26" shape="113.56,-16.30 113.93,-20.29 116.49,-22.85 120.07,-23.39 123.50,-21.32"/>
    </edge>
    <edge id=":J2_5" function="internal">
        <lane id=":J2_5_0" index="0" speed="5.63" length="12.05" shape="121.04,-19.28 118.13,-22.32 116.43,-22.96 115.94,-21.21 116.66,-17.07"/>
    </edge>
    <edge id=":J2_6" function="internal">
        <lane id=":J2_6_0" index="0" speed="7.65" length="19.07" shape="121.04,-19.28 116.67,-23.43 113.05,-24.43 110.18,-22.29 108.06,-16.99"/>
    </edge>
    <edge id=":J2_7" function="internal">
        <lane id=":J2_7_0" index="0" speed="10.02" length="25.60" shape="121.04,-19.28 115.82,-23.91 110.49,-25.39 105.04,-23.71 99.46,-18.86"/>
    </edge>
    <edge id=":J2_8" function="internal">
        <lane id=":J2_8_0" index="0" speed="12.68" length="29.77" shape="121.04,-19.28 115.34,-24.47 108.97,-27.13 101.92,-27.25 94.19,-24.83"/>
    </edge>
    <edge id=":J2_9" function="internal">
        <lane id=":J2_9_0" index="0" speed="13.89" length="32.92" shape="121.04,-19.28 115.10,-25.10 108.29,-29.25 100.63,-31.75 92.10,-32.58"/>
    </edge>
    <edge id=":J2_10" function="internal">
        <lane id=":J2_10_0" index="0" speed="13.89" length="35.73" shape="92.10,-35.78 101.35,-34.88 109.66,-32.16 117.05,-27.64 123.50,-21.32"/>
    </edge>
    <edge id=":J2_11" function="internal">
        <lane id=":J2_11_0" index="0" speed="13.34" length="11.41" shape="92.10,-35.78 101.11,-34.61 103.20,-33.58"/>
    </edge>
    <edge id=":J2_12" function="internal">
        <lane id=":J2_12_0" index="0" speed="10.55" length="10.28" shape="92.10,-35.78 100.85,-34.71 102.11,-33.96"/>
    </edge>
    <edge id=":J2_13" function="internal">
        <lane id=":J2_13_0" index="0" speed="8.36" length="4.94" shape="92.10,-35.78 96.90,-34.62"/>
    </edge>
    <edge id=":J2_14" function="internal">
        <lane id=":J2_14_0" index="0" speed="6.23" length="2.89" shape="92.10,-35.78 94.82,-34.80"/>
    </edge>
    <edge id=":J2_30" function="internal">
        <lane id=":J2_30_0" index="0" speed="13.34" length="22.22" shape="103.20,-33.58 108.20,-31.10 113.39,-25.25 116.66,-17.07"/>
    </edge>
    <edge id=":J2_31" function="internal">
        <lane id=":J2_31_0" index="0" speed="10.55" length="19.98" shape="102.11,-33.96 106.48,-31.36 108.91,-25.53 108.06,-16.99"/>
    </edge>
    <edge id=":J2_32" function="internal">
        <lane id=":J2_32_0" index="0" speed="8.36" length="19.24" shape="96.90,-34.62 98.53,-34.22 102.16,-30.21 102.61,-24.76 99.46,-18.86"/>
    </edge>
    <edge id=":J2_33" function="internal">
        <lane id=":J2_33_0" index="0" speed="6.23" length="12.42" shape="94.82,-34.80 95.84,-34.43 97.58,-31.27 97.11,-27.63 94.19,-24.83"/>
    </edge>
    <edge id=":J2_15" function="internal">
        <lane id=":J2_15_0" index="0" speed="5.70" length="12.49" shape="92.86,-27.74 96.78,-29.86 97.96,-31.37 96.40,-32.28 92.10,-32.58"/>
    </edge>
    <edge id=":J2_16" function="internal">
        <lane id=":J2_16_0" index="0" speed="13.53" length="34.00" shape="92.86,-27.74 101.66,-30.49 109.70,-30.34 116.98,-27.28 123.50,-21.32"/>
    </edge>
    <edge id=":J2_17" function="internal">
        <lane id=":J2_17_0" index="0" speed="11.00" length="31.73" shape="92.86,-27.74 101.64,-30.59 108.39,-29.94 113.32,-25.52 116.66,-17.07"/>
    </edge>
    <edge id=":J2_18" function="internal">
        <lane id=":J2_18_0" index="0" speed="8.46" length="24.25" shape="92.86,-27.74 99.56,-29.28 104.94,-27.74 108.08,-23.51 108.06,-16.99"/>
    </edge>
    <edge id=":J2_19" function="internal">
        <lane id=":J2_19_0" index="0" speed="6.19" length="15.19" shape="92.86,-27.74 96.82,-28.08 99.77,-25.99 100.93,-22.56 99.46,-18.86"/>
    </edge>
    <edge id=":J2_20" function="internal">
        <lane id=":J2_20_0" index="0" speed="5.68" length="12.45" shape="97.06,-20.98 99.72,-24.45 100.13,-26.25 98.28,-26.38 94.19,-24.83"/>
    </edge>
    <edge id=":J2_21" function="internal">
        <lane id=":J2_21_0" index="0" speed="7.55" length="19.41" shape="97.06,-20.98 100.57,-26.05 100.91,-29.68 98.09,-31.86 92.10,-32.58"/>
    </edge>
    <edge id=":J2_22" function="internal">
        <lane id=":J2_22_0" index="0" speed="11.15" length="32.03" shape="97.06,-20.98 103.96,-27.28 110.40,-29.53 116.78,-27.59 123.50,-21.32"/>
    </edge>
    <edge id=":J2_23" function="internal">
        <lane id=":J2_23_0" index="0" speed="8.86" length="25.82" shape="97.06,-20.98 102.83,-25.40 108.60,-26.19 113.50,-23.40 116.66,-17.07"/>
    </edge>
    <edge id=":J2_24" function="internal">
        <lane id=":J2_24_0" index="0" speed="6.39" length="15.97" shape="97.06,-20.98 100.81,-23.30 104.76,-23.18 107.61,-20.96 108.06,-16.99"/>
    </edge>
    <edge id=":J2_25" function="internal">
        <lane id=":J2_25_0" index="0" speed="5.78" length="12.70" shape="104.95,-17.78 105.60,-21.73 104.89,-23.22 102.85,-22.27 99.46,-18.86"/>
    </edge>
    <edge id=":J2_26" function="internal">
        <lane id=":J2_26_0" index="0" speed="7.57" length="19.12" shape="104.95,-17.78 105.57,-23.30 103.98,-26.32 100.19,-26.83 94.19,-24.83"/>
    </edge>
    <edge id=":J2_27" function="internal">
        <lane id=":J2_27_0" index="0" speed="9.42" length="23.88" shape="104.95,-17.78 105.56,-24.26 103.62,-28.88 99.14,-31.66 92.10,-32.58"/>
    </edge>
    <edge id=":J2_28" function="internal">
        <lane id=":J2_28_0" index="0" speed="8.59" length="24.46" shape="104.95,-17.78 108.00,-23.76 112.69,-26.39 118.14,-25.60 123.50,-21.32"/>
    </edge>
    <edge id=":J2_29" function="internal">
        <lane id=":J2_29_0" index="0" speed="6.42" length="16.00" shape="104.95,-17.78 107.24,-21.22 110.82,-22.17 114.40,-20.74 116.66,-17.07"/>
    </edge>
    <edge id=":J21_0" function="internal">
        <lane id=":J21_0_0" index="0" speed="13.89" length="33.60" shape="-59.44,60.50 -60.06,52.36 -58.73,44.47 -55.44,36.80 -50.19,29.37"/>
    </edge>
    <edge id=":J21_1" function="internal">
        <lane id=":J21_1_0" index="0" speed="12.99" length="31.98" shape="-59.44,60.50 -59.74,52.55 -57.36,45.68 -52.29,39.89 -44.54,35.19"/>
    </edge>
    <edge id=":J21_2" function="internal">
        <lane id=":J21_2_0" index="0" speed="10.74" length="30.20" shape="-59.44,60.50 -59.77,52.03 -56.89,46.59 -50.94,43.68 -42.03,42.81"/>
    </edge>
    <edge id=":J21_3" function="internal">
        <lane id=":J21_3_0" index="0" speed="8.66" length="24.68" shape="-59.44,60.50 -59.09,53.96 -55.62,50.07 -49.96,48.95 -43.03,50.72"/>
    </edge>
    <edge id=":J21_4" function="internal">
        <lane id=":J21_4_0" index="0" speed="6.54" length="16.49" shape="-59.44,60.50 -58.77,56.49 -55.71,54.51 -51.59,54.73 -47.72,57.32"/>
    </edge>
    <edge id=":J21_5" function="internal">
        <lane id=":J21_5_0" index="0" speed="5.82" length="12.62" shape="-50.14,59.41 -53.55,55.93 -55.71,54.85 -56.63,56.17 -56.30,59.89"/>
    </edge>
    <edge id=":J21_6" function="internal">
        <lane id=":J21_6_0" index="0" speed="12.75" length="33.21" shape="-50.14,59.41 -54.98,51.92 -56.60,44.42 -55.00,36.91 -50.19,29.37"/>
    </edge>
    <edge id=":J21_7" function="internal">
        <lane id=":J21_7_0" index="0" speed="10.51" length="30.67" shape="-50.14,59.41 -54.84,52.02 -55.43,45.53 -51.98,39.93 -44.54,35.19"/>
    </edge>
    <edge id=":J21_8" function="internal">
        <lane id=":J21_8_0" index="0" speed="8.38" length="6.44" shape="-50.14,59.41 -53.08,53.67"/>
    </edge>
    <edge id=":J21_9" function="internal">
        <lane id=":J21_9_0" index="0" speed="6.25" length="3.39" shape="-50.14,59.41 -51.35,56.24"/>
    </edge>
    <edge id=":J21_30" function="internal">
        <lane id=":J21_30_0" index="0" speed="8.38" length="17.73" shape="-53.08,53.67 -53.15,53.54 -52.45,48.20 -48.57,44.32 -42.03,42.81"/>
    </edge>
    <edge id=":J21_31" function="internal">
        <lane id=":J21_31_0" index="0" speed="6.25" length="12.01" shape="-51.35,56.24 -51.55,55.70 -50.25,52.33 -47.12,50.33 -43.03,50.72"/>
    </edge>
    <edge id=":J21_10" function="internal">
        <lane id=":J21_10_0" index="0" speed="5.70" length="12.48" shape="-44.34,53.64 -48.55,52.07 -50.52,52.16 -50.25,53.91 -47.72,57.32"/>
    </edge>
    <edge id=":J21_11" function="internal">
        <lane id=":J21_11_0" index="0" speed="7.68" length="19.08" shape="-44.34,53.64 -50.49,51.60 -54.54,51.97 -56.48,54.73 -56.30,59.89"/>
    </edge>
    <edge id=":J21_12" function="internal">
        <lane id=":J21_12_0" index="0" speed="10.52" length="30.80" shape="-44.34,53.64 -51.85,48.94 -55.38,43.34 -54.85,36.82 -50.19,29.37"/>
    </edge>
    <edge id=":J21_13" function="internal">
        <lane id=":J21_13_0" index="0" speed="8.36" length="24.17" shape="-44.34,53.64 -49.62,49.59 -51.44,44.44 -49.76,39.28 -44.54,35.19"/>
    </edge>
    <edge id=":J21_14" function="internal">
        <lane id=":J21_14_0" index="0" speed="6.20" length="15.19" shape="-44.34,53.64 -47.21,50.88 -47.59,47.28 -45.78,44.15 -42.03,42.81"/>
    </edge>
    <edge id=":J21_15" function="internal">
        <lane id=":J21_15_0" index="0" speed="5.68" length="12.42" shape="-42.03,46.01 -46.38,46.31 -48.00,47.20 -46.88,48.67 -43.03,50.72"/>
    </edge>
    <edge id=":J21_16" function="internal">
        <lane id=":J21_16_0" index="0" speed="7.55" length="19.31" shape="-42.03,46.01 -48.16,46.73 -51.15,48.85 -51.01,52.38 -47.72,57.32"/>
    </edge>
    <edge id=":J21_17" function="internal">
        <lane id=":J21_17_0" index="0" speed="9.57" length="23.74" shape="-42.03,46.01 -49.28,46.89 -54.07,49.50 -56.41,53.83 -56.30,59.89"/>
    </edge>
    <edge id=":J21_18" function="internal">
        <lane id=":J21_18_0" index="0" speed="8.40" length="24.24" shape="-42.03,46.01 -48.58,44.52 -52.47,40.64 -53.18,35.28 -50.19,29.37"/>
    </edge>
    <edge id=":J21_19" function="internal">
        <lane id=":J21_19_0" index="0" speed="6.21" length="15.25" shape="-42.03,46.01 -45.81,44.69 -47.70,41.57 -47.38,37.97 -44.54,35.19"/>