<?xml version="1.0" encoding="UTF-8"?>
<!-- generated on 06 févr. 2025 at 09:29:04 by MAP SUMO GUI Version 1.21.0
-->
<sumoConfiguration xmlns:xsi="http://www.w3.org/2001/XMLSchema-instance" xsi:noNamespaceSchemaLocation="http://sumo.dlr.de/xsd/sumoConfiguration.xsd">

	<input>
		<net-file value="AppSumex.net.xml"/>
		<gui-settings-file value="sumex_view_setting.xml"/>
		<route-files value="AppSumex.rou.xml"/>
	</input>

</sumoConfiguration>

