<?xml version="1.0" encoding="UTF-8"?>

<!-- generated on 2025-02-06 09:40:02 by Eclipse SUMO netedit Version 1.15.0
<configuration xmlns:xsi="http://www.w3.org/2001/XMLSchema-instance" xsi:noNamespaceSchemaLocation="http://sumo.dlr.de/xsd/netconvertConfiguration.xsd">

    <input>
        <sumo-net-file value="/home/etudiant/bj220781/TP/s6/s6.01_developpement_avance/SUMO/AppSumex.net.xml"/>
    </input>

    <output>
        <output-file value="/home/etudiant/bj220781/TP/s6/s6.01_developpement_avance/SUMO/AppSumex.net.xml"/>
    </output>

    <processing>
        <geometry.min-radius.fix.railways value="false"/>
        <geometry.max-grade.fix value="false"/>
        <offset.disable-normalization value="true"/>
        <lefthand value="0"/>
    </processing>

    <junctions>
        <no-internal-links value="true"/>
        <no-turnarounds value="true"/>
        <junctions.corner-detail value="5"/>
        <junctions.limit-turn-speed value="5.50"/>
        <rectangular-lane-cut value="0"/>
    </junctions>

    <pedestrian>
        <walkingareas value="0"/>
    </pedestrian>

</configuration>
-->

<net version="1.9" junctionCornerDetail="5" limitTurnSpeed="5.50" xmlns:xsi="http://www.w3.org/2001/XMLSchema-instance" xsi:noNamespaceSchemaLocation="http://sumo.dlr.de/xsd/net_file.xsd">

    <location netOffset="0.00,0.00" convBoundary="-79.59,-60.42,71.32,66.47" origBoundary="2.79,-12.86,17.41,22.67" projParameter="!"/>

    <edge id="E-J0J1" from="J0" to="J1" priority="1">
        <lane id="E-J0J1_0" index="0" speed="13.89" length="138.28" width="0.80" shape="-66.34,-18.28 60.80,-0.38"/>
    </edge>
    <edge id="E-J0J10" from="J0" to="J10" priority="1">
        <lane id="E-J0J10_0" index="0" speed="13.89" length="142.07" width="0.80" shape="-66.83,-15.94 52.01,25.89"/>
    </edge>
    <edge id="E-J0J2" from="J0" to="J2" priority="1">
        <lane id="E-J0J2_0" index="0" speed="13.89" length="129.94" width="0.80" shape="-69.88,-14.22 28.10,53.49"/>
    </edge>
    <edge id="E-J0J3" from="J0" to="J3" priority="1">
        <lane id="E-J0J3_0" index="0" speed="13.89" length="39.39" width="0.80" shape="-72.27,-26.93 -57.64,-43.33"/>
    </edge>
    <edge id="E-J0J4" from="J0" to="J4" priority="1">
        <lane id="E-J0J4_0" index="0" speed="13.89" length="109.81" width="0.80" shape="-67.19,-23.53 25.32,-53.05"/>
    </edge>
    <edge id="E-J0J5" from="J0" to="J5" priority="1">
        <lane id="E-J0J5_0" index="0" speed="13.89" length="38.78" width="0.80" shape="-78.20,-11.27 -78.89,8.15"/>
    </edge>
    <edge id="E-J0J6" from="J0" to="J6" priority="1">
        <lane id="E-J0J6_0" index="0" speed="13.89" length="74.49" width="0.80" shape="-69.62,-25.42 -20.71,-55.73"/>
    </edge>
    <edge id="E-J0J7" from="J0" to="J7" priority="1">
        <lane id="E-J0J7_0" index="0" speed="13.89" length="131.27" width="0.80" shape="-66.61,-21.19 47.57,-33.18"/>
    </edge>
    <edge id="E-J0J8" from="J0" to="J8" priority="1">
        <lane id="E-J0J8_0" index="0" speed="13.89" length="67.68" width="0.80" shape="-74.81,-10.69 -58.12,37.45"/>
    </edge>
    <edge id="E-J0J9" from="J0" to="J9" priority="1">
        <lane id="E-J0J9_0" index="0" speed="13.89" length="99.61" width="0.80" shape="-72.44,-12.05 -22.05,58.32"/>
    </edge>
    <edge id="E-J10J0" from="J10" to="J0" priority="1">
        <lane id="E-J10J0_0" index="0" speed="13.89" length="142.07" width="0.80" shape="51.74,26.65 -67.10,-15.19"/>
    </edge>
    <edge id="E-J10J1" from="J10" to="J1" priority="1">
        <lane id="E-J10J1_0" index="0" speed="13.89" length="29.83" width="0.80" shape="64.00,21.95 67.28,12.21"/>
    </edge>
    <edge id="E-J10J2" from="J10" to="J2" priority="1">
        <lane id="E-J10J2_0" index="0" speed="13.89" length="37.57" width="0.80" shape="57.16,35.86 45.69,49.43"/>
    </edge>
    <edge id="E-J10J3" from="J10" to="J3" priority="1">
        <lane id="E-J10J3_0" index="0" speed="13.89" length="138.32" width="0.80" shape="53.48,24.42 -42.38,-42.83"/>
    </edge>
    <edge id="E-J10J4" from="J10" to="J4" priority="1">
        <lane id="E-J10J4_0" index="0" speed="13.89" length="88.72" width="0.80" shape="58.28,19.63 38.22,-46.13"/>
    </edge>
    <edge id="E-J10J5" from="J10" to="J5" priority="1">
        <lane id="E-J10J5_0" index="0" speed="13.89" length="135.61" width="0.80" shape="50.81,29.13 -67.40,17.99"/>
    </edge>
    <edge id="E-J10J6" from="J10" to="J6" priority="1">
        <lane id="E-J10J6_0" index="0" speed="13.89" length="116.76" width="0.80" shape="55.21,22.39 -6.03,-52.07"/>
    </edge>
    <edge id="E-J10J7" from="J10" to="J7" priority="1">
        <lane id="E-J10J7_0" index="0" speed="13.89" length="63.75" width="0.80" shape="60.76,19.08 58.19,-24.31"/>
    </edge>
    <edge id="E-J10J8" from="J10" to="J8" priority="1">
        <lane id="E-J10J8_0" index="0" speed="13.89" length="118.56" width="0.80" shape="50.96,31.63 -43.80,44.41"/>
    </edge>
    <edge id="E-J10J9" from="J10" to="J9" priority="1">
        <lane id="E-J10J9_0" index="0" speed="13.89" length="84.92" width="0.80" shape="53.59,34.03 -5.64,61.73"/>
    </edge>
    <edge id="E-J1J0" from="J1" to="J0" priority="1">
        <lane id="E-J1J0_0" index="0" speed="13.89" length="138.28" width="0.80" shape="60.69,0.41 -66.46,-17.49"/>
    </edge>
    <edge id="E-J1J10" from="J1" to="J10" priority="1">
        <lane id="E-J1J10_0" index="0" speed="13.89" length="29.83" width="0.80" shape="68.04,12.47 64.76,22.20"/>
    </edge>
    <edge id="E-J1J2" from="J1" to="J2" priority="1">
        <lane id="E-J1J2_0" index="0" speed="13.89" length="63.82" width="0.80" shape="65.79,11.52 43.90,48.08"/>
    </edge>
    <edge id="E-J1J3" from="J1" to="J3" priority="1">
        <lane id="E-J1J3_0" index="0" speed="13.89" length="127.50" width="0.80" shape="61.40,-2.20 -41.12,-44.94"/>
    </edge>
    <edge id="E-J1J4" from="J1" to="J4" priority="1">
        <lane id="E-J1J4_0" index="0" speed="13.89" length="66.09" width="0.80" shape="64.59,-8.58 40.97,-46.61"/>
    </edge>
    <edge id="E-J1J5" from="J1" to="J5" priority="1">
        <lane id="E-J1J5_0" index="0" speed="13.89" length="138.65" width="0.80" shape="60.65,2.96 -67.33,15.63"/>
    </edge>
    <edge id="E-J1J6" from="J1" to="J6" priority="1">
        <lane id="E-J1J6_0" index="0" speed="13.89" length="99.91" width="0.80" shape="62.58,-4.47 -4.19,-53.86"/>
    </edge>
    <edge id="E-J1J7" from="J1" to="J7" priority="1">
        <lane id="E-J1J7_0" index="0" speed="13.89" length="36.94" width="0.80" shape="66.68,-9.70 60.92,-25.04"/>
    </edge>
    <edge id="E-J1J8" from="J1" to="J8" priority="1">
        <lane id="E-J1J8_0" index="0" speed="13.89" length="129.08" width="0.80" shape="61.29,5.41 -44.27,42.06"/>
    </edge>
    <edge id="E-J1J9" from="J1" to="J9" priority="1">
        <lane id="E-J1J9_0" index="0" speed="13.89" length="103.19" width="0.80" shape="64.10,7.32 -6.79,59.64"/>
    </edge>
    <edge id="E-J2J0" from="J2" to="J0" priority="1">
        <lane id="E-J2J0_0" index="0" speed="13.89" length="129.94" width="0.80" shape="27.64,54.15 -70.33,-13.56"/>
    </edge>
    <edge id="E-J2J1" from="J2" to="J1" priority="1">
        <lane id="E-J2J1_0" index="0" speed="13.89" length="63.82" width="0.80" shape="43.22,47.66 65.10,11.11"/>
    </edge>
    <edge id="E-J2J10" from="J2" to="J10" priority="1">
        <lane id="E-J2J10_0" index="0" speed="13.89" length="37.57" width="0.80" shape="45.08,48.92 56.55,35.34"/>
    </edge>
    <edge id="E-J2J3" from="J2" to="J3" priority="1">
        <lane id="E-J2J3_0" index="0" speed="13.89" length="134.73" width="0.80" shape="30.20,52.60 -45.72,-41.92"/>
    </edge>
    <edge id="E-J2J4" from="J2" to="J4" priority="1">
        <lane id="E-J2J4_0" index="0" speed="13.89" length="107.62" width="0.80" shape="35.98,48.93 35.32,-46.43"/>
    </edge>
    <edge id="E-J2J5" from="J2" to="J5" priority="1">
        <lane id="E-J2J5_0" index="0" speed="13.89" length="116.13" width="0.80" shape="25.28,56.01 -70.32,20.33"/>
    </edge>
    <edge id="E-J2J6" from="J2" to="J6" priority="1">
        <lane id="E-J2J6_0" index="0" speed="13.89" length="123.25" width="0.80" shape="32.52,51.13 -9.27,-51.70"/>
    </edge>
    <edge id="E-J2J7" from="J2" to="J7" priority="1">
        <lane id="E-J2J7_0" index="0" speed="13.89" length="91.82" width="0.80" shape="38.49,49.11 55.49,-24.65"/>
    </edge>
    <edge id="E-J2J8" from="J2" to="J8" priority="1">
        <lane id="E-J2J8_0" index="0" speed="13.89" length="91.69" width="0.80" shape="24.75,58.36 -46.33,47.45"/>
    </edge>
    <edge id="E-J2J9" from="J2" to="J9" priority="1">
        <lane id="E-J2J9_0" index="0" speed="13.89" length="54.58" width="0.80" shape="26.86,61.37 -7.64,65.73"/>
    </edge>
    <edge id="E-J3J0" from="J3" to="J0" priority="1">
        <lane id="E-J3J0_0" index="0" speed="13.89" length="39.39" width="0.80" shape="-57.04,-42.80 -71.67,-26.40"/>
    </edge>
    <edge id="E-J3J1" from="J3" to="J1" priority="1">
        <lane id="E-J3J1_0" index="0" speed="13.89" length="127.50" width="0.80" shape="-40.81,-45.68 61.71,-2.94"/>
    </edge>
    <edge id="E-J3J10" from="J3" to="J10" priority="1">
        <lane id="E-J3J10_0" index="0" speed="13.89" length="138.32" width="0.80" shape="-41.92,-43.49 53.94,23.76"/>
    </edge>
    <edge id="E-J3J2" from="J3" to="J2" priority="1">
        <lane id="E-J3J2_0" index="0" speed="13.89" length="134.73" width="0.80" shape="-45.10,-42.42 30.82,52.10"/>
    </edge>
    <edge id="E-J3J4" from="J3" to="J4" priority="1">
        <lane id="E-J3J4_0" index="0" speed="13.89" length="83.28" width="0.80" shape="-39.39,-50.95 21.97,-55.35"/>
    </edge>
    <edge id="E-J3J5" from="J3" to="J5" priority="1">
        <lane id="E-J3J5_0" index="0" speed="13.89" length="70.88" width="0.80" shape="-54.54,-41.37 -75.69,8.30"/>
    </edge>
    <edge id="E-J3J6" from="J3" to="J6" priority="1">
        <lane id="E-J3J6_0" index="0" speed="13.89" length="40.51" width="0.80" shape="-39.87,-53.28 -21.69,-58.27"/>
    </edge>
    <edge id="E-J3J7" from="J3" to="J7" priority="1">
        <lane id="E-J3J7_0" index="0" speed="13.89" length="110.60" width="0.80" shape="-40.09,-48.45 46.86,-35.90"/>
    </edge>
    <edge id="E-J3J8" from="J3" to="J8" priority="1">
        <lane id="E-J3J8_0" index="0" speed="13.89" length="95.39" width="0.80" shape="-51.43,-40.94 -54.92,37.02"/>
    </edge>
    <edge id="E-J3J9" from="J3" to="J9" priority="1">
        <lane id="E-J3J9_0" index="0" speed="13.89" length="116.66" width="0.80" shape="-48.56,-41.43 -18.87,57.84"/>
    </edge>
    <edge id="E-J4J0" from="J4" to="J0" priority="1">
        <lane id="E-J4J0_0" index="0" speed="13.89" length="109.81" width="0.80" shape="25.57,-52.29 -66.94,-22.77"/>
    </edge>
    <edge id="E-J4J1" from="J4" to="J1" priority="1">
        <lane id="E-J4J1_0" index="0" speed="13.89" length="66.09" width="0.80" shape="41.65,-47.04 65.27,-9.00"/>
    </edge>
    <edge id="E-J4J10" from="J4" to="J10" priority="1">
        <lane id="E-J4J10_0" index="0" speed="13.89" length="88.72" width="0.80" shape="38.99,-46.36 59.05,19.39"/>
    </edge>
    <edge id="E-J4J2" from="J4" to="J2" priority="1">
        <lane id="E-J4J2_0" index="0" speed="13.89" length="107.62" width="0.80" shape="36.12,-46.44 36.78,48.92"/>
    </edge>
    <edge id="E-J4J3" from="J4" to="J3" priority="1">
        <lane id="E-J4J3_0" index="0" speed="13.89" length="83.28" width="0.80" shape="22.03,-54.55 -39.33,-50.15"/>
    </edge>
    <edge id="E-J4J5" from="J4" to="J5" priority="1">
        <lane id="E-J4J5_0" index="0" speed="13.89" length="124.57" width="0.80" shape="27.12,-50.10 -69.57,10.62"/>
    </edge>
    <edge id="E-J4J6" from="J4" to="J6" priority="1">
        <lane id="E-J4J6_0" index="0" speed="13.89" length="45.18" width="0.80" shape="21.99,-56.81 -2.51,-59.10"/>
    </edge>
    <edge id="E-J4J7" from="J4" to="J7" priority="1">
        <lane id="E-J4J7_0" index="0" speed="13.89" length="33.34" width="0.80" shape="43.57,-48.69 52.77,-39.62"/>
    </edge>
    <edge id="E-J4J8" from="J4" to="J8" priority="1">
        <lane id="E-J4J8_0" index="0" speed="13.89" length="130.33" width="0.80" shape="29.44,-48.43 -48.07,37.71"/>
    </edge>
    <edge id="E-J4J9" from="J4" to="J9" priority="1">
        <lane id="E-J4J9_0" index="0" speed="13.89" length="123.12" width="0.80" shape="32.55,-47.66 -12.11,56.74"/>
    </edge>
    <edge id="E-J5J0" from="J5" to="J0" priority="1">
        <lane id="E-J5J0_0" index="0" speed="13.89" length="38.78" width="0.80" shape="-79.69,8.12 -79.00,-11.30"/>
    </edge>
    <edge id="E-J5J1" from="J5" to="J1" priority="1">
        <lane id="E-J5J1_0" index="0" speed="13.89" length="138.65" width="0.80" shape="-67.41,14.83 60.57,2.16"/>
    </edge>
    <edge id="E-J5J10" from="J5" to="J10" priority="1">
        <lane id="E-J5J10_0" index="0" speed="13.89" length="135.61" width="0.80" shape="-67.33,17.19 50.89,28.33"/>
    </edge>
    <edge id="E-J5J2" from="J5" to="J2" priority="1">
        <lane id="E-J5J2_0" index="0" speed="13.89" length="116.13" width="0.80" shape="-70.04,19.58 25.56,55.26"/>
    </edge>
    <edge id="E-J5J3" from="J5" to="J3" priority="1">
        <lane id="E-J5J3_0" index="0" speed="13.89" length="70.88" width="0.80" shape="-76.42,7.98 -55.28,-41.68"/>
    </edge>
    <edge id="E-J5J4" from="J5" to="J4" priority="1">
        <lane id="E-J5J4_0" index="0" speed="13.89" length="124.57" width="0.80" shape="-69.99,9.94 26.70,-50.78"/>
    </edge>
    <edge id="E-J5J6" from="J5" to="J6" priority="1">
        <lane id="E-J5J6_0" index="0" speed="13.89" length="98.87" width="0.80" shape="-73.67,9.06 -18.83,-53.65"/>
    </edge>
    <edge id="E-J5J7" from="J5" to="J7" priority="1">
        <lane id="E-J5J7_0" index="0" speed="13.89" length="140.12" width="0.80" shape="-68.85,12.09 48.06,-30.66"/>
    </edge>
    <edge id="E-J5J8" from="J5" to="J8" priority="1">
        <lane id="E-J5J8_0" index="0" speed="13.89" length="36.03" width="0.80" shape="-72.00,25.08 -60.78,38.78"/>
    </edge>
    <edge id="E-J5J9" from="J5" to="J9" priority="1">
        <lane id="E-J5J9_0" index="0" speed="13.89" length="75.34" width="0.80" shape="-70.35,23.28 -26.49,58.18"/>
    </edge>
    <edge id="E-J6J0" from="J6" to="J0" priority="1">
        <lane id="E-J6J0_0" index="0" speed="13.89" length="74.49" width="0.80" shape="-20.28,-55.05 -69.20,-24.74"/>
    </edge>
    <edge id="E-J6J1" from="J6" to="J1" priority="1">
        <lane id="E-J6J1_0" index="0" speed="13.89" length="99.91" width="0.80" shape="-3.71,-54.51 63.05,-5.11"/>
    </edge>
    <edge id="E-J6J10" from="J6" to="J10" priority="1">
        <lane id="E-J6J10_0" index="0" speed="13.89" length="116.76" width="0.80" shape="-5.41,-52.58 55.83,21.88"/>
    </edge>
    <edge id="E-J6J2" from="J6" to="J2" priority="1">
        <lane id="E-J6J2_0" index="0" speed="13.89" length="123.25" width="0.80" shape="-8.53,-52.00 33.26,50.83"/>
    </edge>
    <edge id="E-J6J3" from="J6" to="J3" priority="1">
        <lane id="E-J6J3_0" index="0" speed="13.89" length="40.51" width="0.80" shape="-21.48,-57.50 -39.66,-52.50"/>
    </edge>
    <edge id="E-J6J4" from="J6" to="J4" priority="1">
        <lane id="E-J6J4_0" index="0" speed="13.89" length="45.18" width="0.80" shape="-2.43,-59.89 22.06,-57.60"/>
    </edge>
    <edge id="E-J6J5" from="J6" to="J5" priority="1">
        <lane id="E-J6J5_0" index="0" speed="13.89" length="98.87" width="0.80" shape="-18.23,-53.13 -73.07,9.59"/>
    </edge>
    <edge id="E-J6J7" from="J6" to="J7" priority="1">
        <lane id="E-J6J7_0" index="0" speed="13.89" length="75.25" width="0.80" shape="-2.93,-57.28 47.56,-38.25"/>
    </edge>
    <edge id="E-J6J8" from="J6" to="J8" priority="1">
        <lane id="E-J6J8_0" index="0" speed="13.89" length="114.54" width="0.80" shape="-15.34,-52.13 -52.08,37.79"/>
    </edge>
    <edge id="E-J6J9" from="J6" to="J9" priority="1">
        <lane id="E-J6J9_0" index="0" speed="13.89" length="121.40" width="0.80" shape="-12.27,-51.94 -16.01,57.60"/>
    </edge>
    <edge id="E-J7J0" from="J7" to="J0" priority="1">
        <lane id="E-J7J0_0" index="0" speed="13.89" length="131.27" width="0.80" shape="47.66,-32.39 -66.53,-20.40"/>
    </edge>
    <edge id="E-J7J1" from="J7" to="J1" priority="1">
        <lane id="E-J7J1_0" index="0" speed="13.89" length="36.94" width="0.80" shape="61.67,-25.33 67.43,-9.98"/>
    </edge>
    <edge id="E-J7J10" from="J7" to="J10" priority="1">
        <lane id="E-J7J10_0" index="0" speed="13.89" length="63.75" width="0.80" shape="58.99,-24.35 61.56,19.04"/>
    </edge>
    <edge id="E-J7J2" from="J7" to="J2" priority="1">
        <lane id="E-J7J2_0" index="0" speed="13.89" length="91.82" width="0.80" shape="56.27,-24.47 39.27,49.29"/>
    </edge>
    <edge id="E-J7J3" from="J7" to="J3" priority="1">
        <lane id="E-J7J3_0" index="0" speed="13.89" length="110.60" width="0.80" shape="46.75,-35.10 -40.20,-47.65"/>
    </edge>
    <edge id="E-J7J4" from="J7" to="J4" priority="1">
        <lane id="E-J7J4_0" index="0" speed="13.89" length="33.34" width="0.80" shape="52.21,-39.05 43.00,-48.12"/>
    </edge>
    <edge id="E-J7J5" from="J7" to="J5" priority="1">
        <lane id="E-J7J5_0" index="0" speed="13.89" length="140.12" width="0.80" shape="48.33,-29.91 -68.57,12.84"/>
    </edge>
    <edge id="E-J7J6" from="J7" to="J6" priority="1">
        <lane id="E-J7J6_0" index="0" speed="13.89" length="75.25" width="0.80" shape="47.28,-37.51 -3.21,-56.54"/>
    </edge>
    <edge id="E-J7J8" from="J7" to="J8" priority="1">
        <lane id="E-J7J8_0" index="0" speed="13.89" length="138.76" width="0.80" shape="49.95,-27.75 -46.48,39.65"/>
    </edge>
    <edge id="E-J7J9" from="J7" to="J9" priority="1">
        <lane id="E-J7J9_0" index="0" speed="13.89" length="120.93" width="0.80" shape="53.01,-26.47 -9.97,58.09"/>
    </edge>
    <edge id="E-J8J0" from="J8" to="J0" priority="1">
        <lane id="E-J8J0_0" index="0" speed="13.89" length="67.68" width="0.80" shape="-58.87,37.71 -75.57,-10.43"/>
    </edge>
    <edge id="E-J8J1" from="J8" to="J1" priority="1">
        <lane id="E-J8J1_0" index="0" speed="13.89" length="129.08" width="0.80" shape="-44.54,41.31 61.02,4.65"/>
    </edge>
    <edge id="E-J8J10" from="J8" to="J10" priority="1">
        <lane id="E-J8J10_0" index="0" speed="13.89" length="118.56" width="0.80" shape="-43.90,43.61 50.85,30.83"/>
    </edge>
    <edge id="E-J8J2" from="J8" to="J2" priority="1">
        <lane id="E-J8J2_0" index="0" speed="13.89" length="91.69" width="0.80" shape="-46.21,46.66 24.87,57.57"/>
    </edge>
    <edge id="E-J8J3" from="J8" to="J3" priority="1">
        <lane id="E-J8J3_0" index="0" speed="13.89" length="95.39" width="0.80" shape="-55.72,36.98 -52.23,-40.98"/>
    </edge>
    <edge id="E-J8J4" from="J8" to="J4" priority="1">
        <lane id="E-J8J4_0" index="0" speed="13.89" length="130.33" width="0.80" shape="-48.66,37.18 28.84,-48.96"/>
    </edge>
    <edge id="E-J8J5" from="J8" to="J5" priority="1">
        <lane id="E-J8J5_0" index="0" speed="13.89" length="36.03" width="0.80" shape="-61.40,39.29 -72.62,25.59"/>
    </edge>
    <edge id="E-J8J6" from="J8" to="J6" priority="1">
        <lane id="E-J8J6_0" index="0" speed="13.89" length="114.54" width="0.80" shape="-52.82,37.48 -16.08,-52.43"/>
    </edge>
    <edge id="E-J8J7" from="J8" to="J7" priority="1">
        <lane id="E-J8J7_0" index="0" speed="13.89" length="138.76" width="0.80" shape="-46.94,38.99 49.50,-28.40"/>
    </edge>
    <edge id="E-J8J9" from="J8" to="J9" priority="1">
        <lane id="E-J8J9_0" index="0" speed="13.89" length="43.34" width="0.80" shape="-47.87,49.35 -27.83,60.07"/>
    </edge>
    <edge id="E-J9J0" from="J9" to="J0" priority="1">
        <lane id="E-J9J0_0" index="0" speed="13.89" length="99.61" width="0.80" shape="-22.70,58.79 -73.09,-11.58"/>
    </edge>
    <edge id="E-J9J1" from="J9" to="J1" priority="1">
        <lane id="E-J9J1_0" index="0" speed="13.89" length="103.19" width="0.80" shape="-7.26,59.00 63.63,6.68"/>
    </edge>
    <edge id="E-J9J10" from="J9" to="J10" priority="1">
        <lane id="E-J9J10_0" index="0" speed="13.89" length="84.92" width="0.80" shape="-5.97,61.01 53.26,33.31"/>
    </edge>
    <edge id="E-J9J2" from="J9" to="J2" priority="1">
        <lane id="E-J9J2_0" index="0" speed="13.89" length="54.58" width="0.80" shape="-7.74,64.93 26.76,60.57"/>
    </edge>
    <edge id="E-J9J3" from="J9" to="J3" priority="1">
        <lane id="E-J9J3_0" index="0" speed="13.89" length="116.66" width="0.80" shape="-19.64,58.07 -49.32,-41.20"/>
    </edge>
    <edge id="E-J9J4" from="J9" to="J4" priority="1">
        <lane id="E-J9J4_0" index="0" speed="13.89" length="123.12" width="0.80" shape="-12.85,56.43 31.81,-47.97"/>
    </edge>
    <edge id="E-J9J5" from="J9" to="J5" priority="1">
        <lane id="E-J9J5_0" index="0" speed="13.89" length="75.34" width="0.80" shape="-26.99,58.80 -70.84,23.91"/>
    </edge>
    <edge id="E-J9J6" from="J9" to="J6" priority="1">
        <lane id="E-J9J6_0" index="0" speed="13.89" length="121.40" width="0.80" shape="-16.81,57.58 -13.07,-51.96"/>
    </edge>
    <edge id="E-J9J7" from="J9" to="J7" priority="1">
        <lane id="E-J9J7_0" index="0" speed="13.89" length="120.93" width="0.80" shape="-10.61,57.61 52.37,-26.94"/>
    </edge>
    <edge id="E-J9J8" from="J9" to="J8" priority="1">
        <lane id="E-J9J8_0" index="0" speed="13.89" length="43.34" width="0.80" shape="-28.20,60.78 -48.25,50.05"/>
    </edge>

    <junction id="J0" type="unregulated" x="-78.31" y="-19.56" incLanes="E-J8J0_0 E-J9J0_0 E-J2J0_0 E-J10J0_0 E-J1J0_0 E-J7J0_0 E-J4J0_0 E-J6J0_0 E-J3J0_0 E-J5J0_0" intLanes="" shape="-75.95,-10.30 -74.43,-10.82 -73.42,-11.35 -72.11,-12.28 -70.56,-13.23 -69.65,-14.55 -67.23,-14.81 -66.70,-16.32 -66.51,-17.09 -66.29,-18.68 -66.49,-20.00 -66.65,-21.59 -66.82,-22.39 -67.31,-23.91 -68.99,-24.40 -69.83,-25.76 -71.37,-26.14 -72.57,-27.20 -75.05,-24.38 -76.83,-22.13 -78.03,-20.08 -78.77,-17.84 -79.19,-15.04 -79.40,-11.31 -77.80,-11.25"/>
    <junction id="J1" type="unregulated" x="71.32" y="1.50" incLanes="E-J7J1_0 E-J4J1_0 E-J6J1_0 E-J3J1_0 E-J0J1_0 E-J5J1_0 E-J8J1_0 E-J9J1_0 E-J2J1_0 E-J10J1_0" intLanes="" shape="67.81,-10.13 66.31,-9.56 65.61,-9.22 64.25,-8.37 63.29,-5.44 62.34,-4.15 61.86,-3.31 61.25,-1.83 60.86,-0.78 60.64,0.80 60.53,1.76 60.69,3.36 60.89,4.27 61.42,5.79 63.39,6.36 64.34,7.65 64.76,10.91 66.13,11.73 66.91,12.09 68.42,12.60 69.91,7.91 70.76,4.28 70.98,1.19 70.55,-1.90 69.49,-5.50"/>
    <junction id="J10" type="unregulated" x="61.79" y="29.76" incLanes="E-J1J10_0 E-J7J10_0 E-J4J10_0 E-J6J10_0 E-J3J10_0 E-J0J10_0 E-J5J10_0 E-J8J10_0 E-J9J10_0 E-J2J10_0" intLanes="" shape="65.14,22.33 63.62,21.82 62.87,23.19 62.57,23.01 62.31,22.26 62.11,20.92 61.96,19.01 60.36,19.11 59.43,19.28 57.90,19.74 56.14,21.63 54.90,22.64 54.17,23.43 53.25,24.74 52.14,25.52 51.61,27.02 50.93,27.93 50.78,29.53 50.80,30.44 51.01,32.02 53.09,32.95 53.76,34.40 56.24,35.09 57.47,36.12 59.63,33.52 61.16,31.53 62.27,29.77 63.16,27.89 64.05,25.53"/>
    <junction id="J2" type="unregulated" x="36.45" y="59.75" incLanes="E-J10J2_0 E-J1J2_0 E-J7J2_0 E-J4J2_0 E-J6J2_0 E-J3J2_0 E-J0J2_0 E-J5J2_0 E-J8J2_0 E-J9J2_0" intLanes="" shape="46.00,49.69 44.78,48.66 44.25,48.28 42.88,47.46 39.66,49.38 38.10,49.02 37.18,48.92 35.58,48.93 33.63,50.68 32.15,51.28 31.13,51.85 29.88,52.85 28.32,53.16 27.41,54.48 25.69,54.88 25.14,56.38 24.93,57.17 24.69,58.75 26.71,60.18 26.91,61.76 31.71,60.98 35.22,59.92 37.92,58.43 40.30,56.34 42.83,53.48"/>
    <junction id="J3" type="unregulated" x="-51.44" y="-49.68" incLanes="E-J9J3_0 E-J2J3_0 E-J10J3_0 E-J1J3_0 E-J7J3_0 E-J4J3_0 E-J6J3_0 E-J0J3_0 E-J5J3_0 E-J8J3_0" intLanes="" shape="-49.71,-41.09 -48.17,-41.55 -46.03,-41.67 -44.79,-42.67 -42.61,-42.51 -41.69,-43.82 -41.27,-44.57 -40.65,-46.05 -40.26,-47.26 -40.03,-48.84 -39.31,-49.75 -39.42,-51.34 -39.55,-52.12 -39.98,-53.66 -44.28,-52.50 -47.52,-51.55 -50.11,-50.49 -52.44,-49.01 -54.92,-46.82 -57.94,-43.60 -56.74,-42.53 -55.65,-41.84 -54.18,-41.21 -52.63,-41.00 -51.03,-40.93"/>
    <junction id="J4" type="unregulated" x="35.65" y="-55.93" incLanes="E-J2J4_0 E-J10J4_0 E-J1J4_0 E-J7J4_0 E-J6J4_0 E-J3J4_0 E-J0J4_0 E-J5J4_0 E-J8J4_0 E-J9J4_0" intLanes="" shape="34.92,-46.43 36.52,-46.44 37.84,-46.01 39.37,-46.48 40.63,-46.40 41.98,-47.25 42.72,-47.84 43.85,-48.98 40.14,-52.44 37.09,-54.75 34.22,-56.18 31.08,-57.01 27.20,-57.53 22.10,-58.00 21.95,-56.41 21.94,-55.75 22.06,-54.15 24.08,-54.27 25.50,-54.29 26.32,-54.22 26.55,-54.06 26.17,-53.79 25.20,-53.44 25.69,-51.91 26.48,-51.12 27.34,-49.76 28.55,-49.23 29.74,-48.16 31.44,-48.13 32.91,-47.50"/>
    <junction id="J5" type="unregulated" x="-79.59" y="16.44" incLanes="E-J8J5_0 E-J9J5_0 E-J2J5_0 E-J10J5_0 E-J1J5_0 E-J7J5_0 E-J4J5_0 E-J6J5_0 E-J3J5_0 E-J0J5_0" intLanes="" shape="-72.93,25.84 -71.69,24.83 -71.09,24.22 -70.10,22.97 -70.46,20.70 -69.90,19.20 -67.44,18.39 -67.29,16.80 -67.29,16.03 -67.45,14.43 -68.44,13.21 -68.99,11.71 -69.35,10.96 -70.21,9.60 -72.77,9.85 -73.97,8.80 -75.32,8.45 -76.79,7.83 -78.50,8.16 -80.09,8.11 -80.10,12.22 -79.73,15.31 -78.91,17.78 -77.55,20.08 -75.59,22.62"/>
    <junction id="J6" type="unregulated" x="-12.38" y="-60.42" incLanes="E-J2J6_0 E-J10J6_0 E-J1J6_0 E-J7J6_0 E-J4J6_0 E-J3J6_0 E-J0J6_0 E-J5J6_0 E-J8J6_0 E-J9J6_0" intLanes="" shape="-9.64,-51.55 -8.16,-52.15 -6.34,-51.82 -5.10,-52.83 -4.43,-53.54 -3.48,-54.83 -3.35,-56.16 -2.79,-57.66 -2.55,-58.70 -2.40,-60.29 -6.55,-60.66 -9.65,-60.84 -12.21,-60.78 -14.75,-60.43 -17.77,-59.74 -21.80,-58.66 -21.37,-57.12 -20.92,-56.07 -20.07,-54.71 -19.13,-53.92 -17.93,-52.86 -16.45,-52.58 -14.97,-51.98 -13.47,-51.98 -11.87,-51.92"/>
    <junction id="J7" type="unregulated" x="58.03" y="-33.88" incLanes="E-J10J7_0 E-J1J7_0 E-J4J7_0 E-J6J7_0 E-J3J7_0 E-J0J7_0 E-J5J7_0 E-J8J7_0 E-J9J7_0 E-J2J7_0" intLanes="" shape="57.80,-24.28 59.39,-24.38 60.55,-24.90 62.04,-25.47 60.76,-28.89 59.73,-31.42 58.70,-33.43 57.41,-35.28 55.61,-37.32 53.05,-39.91 51.93,-38.77 52.73,-37.50 52.30,-37.33 51.32,-37.46 49.78,-37.89 47.70,-38.63 47.14,-37.13 46.92,-36.29 46.69,-34.71 47.53,-33.58 47.70,-31.99 47.92,-31.03 48.47,-29.53 49.27,-28.73 50.18,-27.42 52.04,-27.18 53.33,-26.23 55.10,-24.74 56.66,-24.38"/>
    <junction id="J8" type="unregulated" x="-55.71" y="45.61" incLanes="E-J9J8_0 E-J2J8_0 E-J10J8_0 E-J1J8_0 E-J7J8_0 E-J4J8_0 E-J6J8_0 E-J3J8_0 E-J0J8_0 E-J5J8_0" intLanes="" shape="-48.44,50.41 -47.68,49.00 -46.39,47.85 -46.15,46.27 -43.74,44.80 -43.96,43.22 -44.14,42.44 -44.67,40.93 -46.25,39.97 -47.17,38.66 -47.77,37.98 -48.96,36.91 -51.16,39.13 -51.78,39.54 -52.08,39.48 -52.06,38.94 -51.71,37.94 -53.19,37.33 -54.53,37.04 -56.12,36.97 -57.74,37.32 -59.25,37.85 -60.47,38.53 -61.71,39.54 -59.37,42.37 -57.54,44.41 -55.87,45.95 -54.03,47.27 -51.67,48.66"/>
    <junction id="J9" type="unregulated" x="-16.71" y="66.47" incLanes="E-J2J9_0 E-J10J9_0 E-J1J9_0 E-J7J9_0 E-J4J9_0 E-J6J9_0 E-J3J9_0 E-J0J9_0 E-J5J9_0 E-J8J9_0" intLanes="" shape="-7.59,66.12 -7.79,64.54 -9.30,64.49 -9.19,64.18 -8.52,63.67 -7.28,62.98 -5.47,62.09 -6.14,60.65 -6.55,59.96 -7.50,58.68 -9.65,58.33 -10.93,57.37 -11.75,56.90 -13.22,56.27 -15.61,57.62 -17.21,57.56 -18.49,57.73 -20.02,58.19 -21.73,58.09 -23.03,59.02 -22.35,60.34 -22.67,60.36 -23.42,59.95 -24.61,59.12 -26.24,57.86 -27.24,59.11 -27.64,59.72 -28.39,61.13 -24.31,63.34 -21.16,64.96 -18.43,66.02 -15.60,66.55 -12.16,66.57"/>

    <connection from="E-J0J1" to="E-J1J3" fromLane="0" toLane="0" dir="r" state="M"/>
    <connection from="E-J0J1" to="E-J1J6" fromLane="0" toLane="0" dir="r" state="M"/>
    <connection from="E-J0J1" to="E-J1J4" fromLane="0" toLane="0" dir="r" state="M"/>
    <connection from="E-J0J1" to="E-J1J7" fromLane="0" toLane="0" dir="r" state="M"/>
    <connection from="E-J0J1" to="E-J1J10" fromLane="0" toLane="0" dir="l" state="M"/>
    <connection from="E-J0J1" to="E-J1J2" fromLane="0" toLane="0" dir="l" state="M"/>
    <connection from="E-J0J1" to="E-J1J9" fromLane="0" toLane="0" dir="l" state="M"/>
    <connection from="E-J0J1" to="E-J1J8" fromLane="0" toLane="0" dir="l" state="M"/>
    <connection from="E-J0J1" to="E-J1J5" fromLane="0" toLane="0" dir="l" state="M"/>
    <connection from="E-J0J1" to="E-J1J0" fromLane="0" toLane="0" dir="t" state="M"/>
    <connection from="E-J0J10" to="E-J10J3" fromLane="0" toLane="0" dir="r" state="M"/>
    <connection from="E-J0J10" to="E-J10J6" fromLane="0" toLane="0" dir="r" state="M"/>
    <connection from="E-J0J10" to="E-J10J4" fromLane="0" toLane="0" dir="r" state="M"/>
    <connection from="E-J0J10" to="E-J10J7" fromLane="0" toLane="0" dir="r" state="M"/>
    <connection from="E-J0J10" to="E-J10J1" fromLane="0" toLane="0" dir="r" state="M"/>
    <connection from="E-J0J10" to="E-J10J2" fromLane="0" toLane="0" dir="l" state="M"/>
    <connection from="E-J0J10" to="E-J10J9" fromLane="0" toLane="0" dir="l" state="M"/>
    <connection from="E-J0J10" to="E-J10J8" fromLane="0" toLane="0" dir="l" state="M"/>
    <connection from="E-J0J10" to="E-J10J5" fromLane="0" toLane="0" dir="l" state="M"/>
    <connection from="E-J0J10" to="E-J10J0" fromLane="0" toLane="0" dir="t" state="M"/>
    <connection from="E-J0J2" to="E-J2J3" fromLane="0" toLane="0" dir="r" state="M"/>
    <connection from="E-J0J2" to="E-J2J6" fromLane="0" toLane="0" dir="r" state="M"/>
    <connection from="E-J0J2" to="E-J2J4" fromLane="0" toLane="0" dir="r" state="M"/>
    <connection from="E-J0J2" to="E-J2J7" fromLane="0" toLane="0" dir="r" state="M"/>
    <connection from="E-J0J2" to="E-J2J1" fromLane="0" toLane="0" dir="r" state="M"/>
    <connection from="E-J0J2" to="E-J2J10" fromLane="0" toLane="0" dir="R" state="M"/>
    <connection from="E-J0J2" to="E-J2J9" fromLane="0" toLane="0" dir="l" state="M"/>
    <connection from="E-J0J2" to="E-J2J8" fromLane="0" toLane="0" dir="l" state="M"/>
    <connection from="E-J0J2" to="E-J2J5" fromLane="0" toLane="0" dir="l" state="M"/>